
---------- Begin Simulation Statistics ----------
simSeconds                                   2.986070                       # Number of seconds simulated (Second)
simTicks                                 2986070315500                       # Number of ticks simulated (Tick)
finalTick                                2986070315500                       # Number of ticks from beginning of simulation (restored from checkpoints and never reset) (Tick)
simFreq                                  1000000000000                       # The number of ticks per simulated second ((Tick/Second))
hostSeconds                                   5987.77                       # Real time elapsed on the host (Second)
hostTickRate                                498694670                       # The number of ticks simulated per host second (ticks/s) ((Tick/Second))
hostMemory                                   20246216                       # Number of bytes of host memory used (Byte)
simInsts                                   1606960212                       # Number of instructions simulated (Count)
simOps                                     3627716911                       # Number of ops (including micro ops) simulated (Count)
hostInstRate                                   268374                       # Simulator instruction rate (inst/s) ((Count/Second))
hostOpRate                                     605854                       # Simulator op (including micro ops) rate (op/s) ((Count/Second))
system.work_item_type0::samples                     1                       # Run time stat forwork_item_type0 (Unspecified)
system.work_item_type0::mean             368290580000                       # Run time stat forwork_item_type0 (Unspecified)
system.work_item_type0::gmean            368290580000.000244                       # Run time stat forwork_item_type0 (Unspecified)
system.work_item_type0::stdev                     nan                       # Run time stat forwork_item_type0 (Unspecified)
system.work_item_type0::0-3.43597e+10               0      0.00%      0.00% # Run time stat forwork_item_type0 (Unspecified)
system.work_item_type0::3.43597e+10-6.87195e+10            0      0.00%      0.00% # Run time stat forwork_item_type0 (Unspecified)
system.work_item_type0::6.87195e+10-1.03079e+11            0      0.00%      0.00% # Run time stat forwork_item_type0 (Unspecified)
system.work_item_type0::1.03079e+11-1.37439e+11            0      0.00%      0.00% # Run time stat forwork_item_type0 (Unspecified)
system.work_item_type0::1.37439e+11-1.71799e+11            0      0.00%      0.00% # Run time stat forwork_item_type0 (Unspecified)
system.work_item_type0::1.71799e+11-2.06158e+11            0      0.00%      0.00% # Run time stat forwork_item_type0 (Unspecified)
system.work_item_type0::2.06158e+11-2.40518e+11            0      0.00%      0.00% # Run time stat forwork_item_type0 (Unspecified)
system.work_item_type0::2.40518e+11-2.74878e+11            0      0.00%      0.00% # Run time stat forwork_item_type0 (Unspecified)
system.work_item_type0::2.74878e+11-3.09238e+11            0      0.00%      0.00% # Run time stat forwork_item_type0 (Unspecified)
system.work_item_type0::3.09238e+11-3.43597e+11            0      0.00%      0.00% # Run time stat forwork_item_type0 (Unspecified)
system.work_item_type0::3.43597e+11-3.77957e+11            1    100.00%    100.00% # Run time stat forwork_item_type0 (Unspecified)
system.work_item_type0::3.77957e+11-4.12317e+11            0      0.00%    100.00% # Run time stat forwork_item_type0 (Unspecified)
system.work_item_type0::4.12317e+11-4.46677e+11            0      0.00%    100.00% # Run time stat forwork_item_type0 (Unspecified)
system.work_item_type0::4.46677e+11-4.81036e+11            0      0.00%    100.00% # Run time stat forwork_item_type0 (Unspecified)
system.work_item_type0::4.81036e+11-5.15396e+11            0      0.00%    100.00% # Run time stat forwork_item_type0 (Unspecified)
system.work_item_type0::5.15396e+11-5.49756e+11            0      0.00%    100.00% # Run time stat forwork_item_type0 (Unspecified)
system.work_item_type0::5.49756e+11-5.84116e+11            0      0.00%    100.00% # Run time stat forwork_item_type0 (Unspecified)
system.work_item_type0::5.84116e+11-6.18475e+11            0      0.00%    100.00% # Run time stat forwork_item_type0 (Unspecified)
system.work_item_type0::6.18475e+11-6.52835e+11            0      0.00%    100.00% # Run time stat forwork_item_type0 (Unspecified)
system.work_item_type0::6.52835e+11-6.87195e+11            0      0.00%    100.00% # Run time stat forwork_item_type0 (Unspecified)
system.work_item_type0::total                       1                       # Run time stat forwork_item_type0 (Unspecified)
system.clk_domain.clock                          1000                       # Clock period in ticks (Tick)
system.cpu0.numCycles                      5972140631                       # Number of cpu cycles simulated (Cycle)
system.cpu0.cpi                              3.684949                       # CPI: cycles per instruction (core level) ((Cycle/Count))
system.cpu0.ipc                              0.271374                       # IPC: instructions per cycle (core level) ((Count/Cycle))
system.cpu0.numWorkItemsStarted                     1                       # Number of work items this cpu started (Count)
system.cpu0.numWorkItemsCompleted                   1                       # Number of work items this cpu completed (Count)
system.cpu0.clk_domain.clock                      500                       # Clock period in ticks (Tick)
system.cpu0.clk_domain.voltage_domain.voltage            1                       # Voltage in Volts (Volt)
system.cpu0.commitStats0.numInsts          1620684764                       # Number of instructions committed (thread level) (Count)
system.cpu0.commitStats0.numOps            3636856268                       # Number of ops (including micro ops) committed (thread level) (Count)
system.cpu0.commitStats0.numInstsNotNOP             0                       # Number of instructions committed excluding NOPs or prefetches (Count)
system.cpu0.commitStats0.numOpsNotNOP               0                       # Number of Ops (including micro ops) Simulated (Count)
system.cpu0.commitStats0.cpi                 3.684949                       # CPI: cycles per instruction (thread level) ((Cycle/Count))
system.cpu0.commitStats0.ipc                 0.271374                       # IPC: instructions per cycle (thread level) ((Count/Cycle))
system.cpu0.commitStats0.numMemRefs                 0                       # Number of memory references committed (Count)
system.cpu0.commitStats0.numFpInsts          46613145                       # Number of float instructions (Count)
system.cpu0.commitStats0.numIntInsts       3376278093                       # Number of integer instructions (Count)
system.cpu0.commitStats0.numLoadInsts       325146764                       # Number of load instructions (Count)
system.cpu0.commitStats0.numStoreInsts      310433191                       # Number of store instructions (Count)
system.cpu0.commitStats0.numVecInsts                0                       # Number of vector instructions (Count)
system.cpu0.commitStats0.committedInstType::No_OpClass     85763844      2.36%      2.36% # Class of committed instruction. (Count)
system.cpu0.commitStats0.committedInstType::IntAlu   2876159445     79.08%     81.44% # Class of committed instruction. (Count)
system.cpu0.commitStats0.committedInstType::IntMult     12324645      0.34%     81.78% # Class of committed instruction. (Count)
system.cpu0.commitStats0.committedInstType::IntDiv        71237      0.00%     81.78% # Class of committed instruction. (Count)
system.cpu0.commitStats0.committedInstType::FloatAdd      2302737      0.06%     81.85% # Class of committed instruction. (Count)
system.cpu0.commitStats0.committedInstType::FloatCmp           66      0.00%     81.85% # Class of committed instruction. (Count)
system.cpu0.commitStats0.committedInstType::FloatCvt         7196      0.00%     81.85% # Class of committed instruction. (Count)
system.cpu0.commitStats0.committedInstType::FloatMult           22      0.00%     81.85% # Class of committed instruction. (Count)
system.cpu0.commitStats0.committedInstType::FloatMultAcc            0      0.00%     81.85% # Class of committed instruction. (Count)
system.cpu0.commitStats0.committedInstType::FloatDiv           22      0.00%     81.85% # Class of committed instruction. (Count)
system.cpu0.commitStats0.committedInstType::FloatMisc            0      0.00%     81.85% # Class of committed instruction. (Count)
system.cpu0.commitStats0.committedInstType::FloatSqrt            0      0.00%     81.85% # Class of committed instruction. (Count)
system.cpu0.commitStats0.committedInstType::SimdAdd        19574      0.00%     81.85% # Class of committed instruction. (Count)
system.cpu0.commitStats0.committedInstType::SimdAddAcc            0      0.00%     81.85% # Class of committed instruction. (Count)
system.cpu0.commitStats0.committedInstType::SimdAlu      6020802      0.17%     82.01% # Class of committed instruction. (Count)
system.cpu0.commitStats0.committedInstType::SimdCmp       283500      0.01%     82.02% # Class of committed instruction. (Count)
system.cpu0.commitStats0.committedInstType::SimdCvt      5265286      0.14%     82.16% # Class of committed instruction. (Count)
system.cpu0.commitStats0.committedInstType::SimdMisc     11318377      0.31%     82.48% # Class of committed instruction. (Count)
system.cpu0.commitStats0.committedInstType::SimdMult            0      0.00%     82.48% # Class of committed instruction. (Count)
system.cpu0.commitStats0.committedInstType::SimdMultAcc            0      0.00%     82.48% # Class of committed instruction. (Count)
system.cpu0.commitStats0.committedInstType::SimdMatMultAcc            0      0.00%     82.48% # Class of committed instruction. (Count)
system.cpu0.commitStats0.committedInstType::SimdShift         8769      0.00%     82.48% # Class of committed instruction. (Count)
system.cpu0.commitStats0.committedInstType::SimdShiftAcc            0      0.00%     82.48% # Class of committed instruction. (Count)
system.cpu0.commitStats0.committedInstType::SimdDiv            0      0.00%     82.48% # Class of committed instruction. (Count)
system.cpu0.commitStats0.committedInstType::SimdSqrt            0      0.00%     82.48% # Class of committed instruction. (Count)
system.cpu0.commitStats0.committedInstType::SimdFloatAdd        92611      0.00%     82.48% # Class of committed instruction. (Count)
system.cpu0.commitStats0.committedInstType::SimdFloatAlu            0      0.00%     82.48% # Class of committed instruction. (Count)
system.cpu0.commitStats0.committedInstType::SimdFloatCmp            0      0.00%     82.48% # Class of committed instruction. (Count)
system.cpu0.commitStats0.committedInstType::SimdFloatCvt      1452928      0.04%     82.52% # Class of committed instruction. (Count)
system.cpu0.commitStats0.committedInstType::SimdFloatDiv            5      0.00%     82.52% # Class of committed instruction. (Count)
system.cpu0.commitStats0.committedInstType::SimdFloatMisc            0      0.00%     82.52% # Class of committed instruction. (Count)
system.cpu0.commitStats0.committedInstType::SimdFloatMult       185247      0.01%     82.52% # Class of committed instruction. (Count)
system.cpu0.commitStats0.committedInstType::SimdFloatMultAcc            0      0.00%     82.52% # Class of committed instruction. (Count)
system.cpu0.commitStats0.committedInstType::SimdFloatMatMultAcc            0      0.00%     82.52% # Class of committed instruction. (Count)
system.cpu0.commitStats0.committedInstType::SimdFloatSqrt            0      0.00%     82.52% # Class of committed instruction. (Count)
system.cpu0.commitStats0.committedInstType::SimdReduceAdd            0      0.00%     82.52% # Class of committed instruction. (Count)
system.cpu0.commitStats0.committedInstType::SimdReduceAlu            0      0.00%     82.52% # Class of committed instruction. (Count)
system.cpu0.commitStats0.committedInstType::SimdReduceCmp            0      0.00%     82.52% # Class of committed instruction. (Count)
system.cpu0.commitStats0.committedInstType::SimdFloatReduceAdd            0      0.00%     82.52% # Class of committed instruction. (Count)
system.cpu0.commitStats0.committedInstType::SimdFloatReduceCmp            0      0.00%     82.52% # Class of committed instruction. (Count)
system.cpu0.commitStats0.committedInstType::SimdAes            0      0.00%     82.52% # Class of committed instruction. (Count)
system.cpu0.commitStats0.committedInstType::SimdAesMix            0      0.00%     82.52% # Class of committed instruction. (Count)
system.cpu0.commitStats0.committedInstType::SimdSha1Hash            0      0.00%     82.52% # Class of committed instruction. (Count)
system.cpu0.commitStats0.committedInstType::SimdSha1Hash2            0      0.00%     82.52% # Class of committed instruction. (Count)
system.cpu0.commitStats0.committedInstType::SimdSha256Hash            0      0.00%     82.52% # Class of committed instruction. (Count)
system.cpu0.commitStats0.committedInstType::SimdSha256Hash2            0      0.00%     82.52% # Class of committed instruction. (Count)
system.cpu0.commitStats0.committedInstType::SimdShaSigma2            0      0.00%     82.52% # Class of committed instruction. (Count)
system.cpu0.commitStats0.committedInstType::SimdShaSigma3            0      0.00%     82.52% # Class of committed instruction. (Count)
system.cpu0.commitStats0.committedInstType::SimdPredAlu            0      0.00%     82.52% # Class of committed instruction. (Count)
system.cpu0.commitStats0.committedInstType::Matrix            0      0.00%     82.52% # Class of committed instruction. (Count)
system.cpu0.commitStats0.committedInstType::MatrixMov            0      0.00%     82.52% # Class of committed instruction. (Count)
system.cpu0.commitStats0.committedInstType::MatrixOP            0      0.00%     82.52% # Class of committed instruction. (Count)
system.cpu0.commitStats0.committedInstType::MemRead    316125063      8.69%     91.22% # Class of committed instruction. (Count)
system.cpu0.commitStats0.committedInstType::MemWrite    302691637      8.32%     99.54% # Class of committed instruction. (Count)
system.cpu0.commitStats0.committedInstType::FloatMemRead      9021701      0.25%     99.79% # Class of committed instruction. (Count)
system.cpu0.commitStats0.committedInstType::FloatMemWrite      7741554      0.21%    100.00% # Class of committed instruction. (Count)
system.cpu0.commitStats0.committedInstType::IprAccess            0      0.00%    100.00% # Class of committed instruction. (Count)
system.cpu0.commitStats0.committedInstType::InstPrefetch            0      0.00%    100.00% # Class of committed instruction. (Count)
system.cpu0.commitStats0.committedInstType::VectorUnitStrideLoad            0      0.00%    100.00% # Class of committed instruction. (Count)
system.cpu0.commitStats0.committedInstType::VectorUnitStrideStore            0      0.00%    100.00% # Class of committed instruction. (Count)
system.cpu0.commitStats0.committedInstType::VectorUnitStrideMaskLoad            0      0.00%    100.00% # Class of committed instruction. (Count)
system.cpu0.commitStats0.committedInstType::VectorUnitStrideMaskStore            0      0.00%    100.00% # Class of committed instruction. (Count)
system.cpu0.commitStats0.committedInstType::VectorStridedLoad            0      0.00%    100.00% # Class of committed instruction. (Count)
system.cpu0.commitStats0.committedInstType::VectorStridedStore            0      0.00%    100.00% # Class of committed instruction. (Count)
system.cpu0.commitStats0.committedInstType::VectorIndexedLoad            0      0.00%    100.00% # Class of committed instruction. (Count)
system.cpu0.commitStats0.committedInstType::VectorIndexedStore            0      0.00%    100.00% # Class of committed instruction. (Count)
system.cpu0.commitStats0.committedInstType::VectorUnitStrideFaultOnlyFirstLoad            0      0.00%    100.00% # Class of committed instruction. (Count)
system.cpu0.commitStats0.committedInstType::VectorWholeRegisterLoad            0      0.00%    100.00% # Class of committed instruction. (Count)
system.cpu0.commitStats0.committedInstType::VectorWholeRegisterStore            0      0.00%    100.00% # Class of committed instruction. (Count)
system.cpu0.commitStats0.committedInstType::VectorIntegerArith            0      0.00%    100.00% # Class of committed instruction. (Count)
system.cpu0.commitStats0.committedInstType::VectorFloatArith            0      0.00%    100.00% # Class of committed instruction. (Count)
system.cpu0.commitStats0.committedInstType::VectorFloatConvert            0      0.00%    100.00% # Class of committed instruction. (Count)
system.cpu0.commitStats0.committedInstType::VectorIntegerReduce            0      0.00%    100.00% # Class of committed instruction. (Count)
system.cpu0.commitStats0.committedInstType::VectorFloatReduce            0      0.00%    100.00% # Class of committed instruction. (Count)
system.cpu0.commitStats0.committedInstType::VectorMisc            0      0.00%    100.00% # Class of committed instruction. (Count)
system.cpu0.commitStats0.committedInstType::VectorIntegerExtension            0      0.00%    100.00% # Class of committed instruction. (Count)
system.cpu0.commitStats0.committedInstType::VectorConfig            0      0.00%    100.00% # Class of committed instruction. (Count)
system.cpu0.commitStats0.committedInstType::total   3636856268                       # Class of committed instruction. (Count)
system.cpu0.commitStats0.committedControl::IsControl    556047604                       # Class of control type instructions committed (Count)
system.cpu0.commitStats0.committedControl::IsDirectControl    488878684                       # Class of control type instructions committed (Count)
system.cpu0.commitStats0.committedControl::IsIndirectControl     67167573                       # Class of control type instructions committed (Count)
system.cpu0.commitStats0.committedControl::IsCondControl    415949305                       # Class of control type instructions committed (Count)
system.cpu0.commitStats0.committedControl::IsUncondControl    140096952                       # Class of control type instructions committed (Count)
system.cpu0.commitStats0.committedControl::IsCall     36657653                       # Class of control type instructions committed (Count)
system.cpu0.commitStats0.committedControl::IsReturn     36657635                       # Class of control type instructions committed (Count)
system.cpu0.exec_context.thread_0.numMatAluAccesses            0                       # Number of matrix alu accesses (Count)
system.cpu0.exec_context.thread_0.numCallsReturns     73315288                       # Number of times a function call or return occured (Count)
system.cpu0.exec_context.thread_0.numMatInsts            0                       # Number of matrix instructions (Count)
system.cpu0.exec_context.thread_0.numIdleCycles 8394158.001997                       # Number of idle cycles (Cycle)
system.cpu0.exec_context.thread_0.numBusyCycles 5963746472.998003                       # Number of busy cycles (Cycle)
system.cpu0.exec_context.thread_0.notIdleFraction     0.998594                       # Percentage of non-idle cycles (Ratio)
system.cpu0.exec_context.thread_0.idleFraction     0.001406                       # Percentage of idle cycles (Ratio)
system.cpu0.executeStats0.numInsts                  0                       # Number of executed instructions (Count)
system.cpu0.executeStats0.numNop                    0                       # Number of nop insts executed (Count)
system.cpu0.executeStats0.numBranches               0                       # Number of branches executed (Count)
system.cpu0.executeStats0.numLoadInsts              0                       # Number of load instructions executed (Count)
system.cpu0.executeStats0.numStoreInsts     635579955                       # Number of stores executed (Count)
system.cpu0.executeStats0.instRate                  0                       # Inst execution rate ((Count/Cycle))
system.cpu0.executeStats0.numFpAluAccesses     46613145                       # Number of float alu accesses (Count)
system.cpu0.executeStats0.numFpRegReads      64561844                       # Number of times the floating registers were read (Count)
system.cpu0.executeStats0.numFpRegWrites     33170914                       # Number of times the floating registers were written (Count)
system.cpu0.executeStats0.numIntAluAccesses   3376278093                       # Number of integer alu accesses (Count)
system.cpu0.executeStats0.numIntRegReads   4372015836                       # Number of times the integer registers were read (Count)
system.cpu0.executeStats0.numIntRegWrites   2357630235                       # Number of times the integer registers were written (Count)
system.cpu0.executeStats0.numMemRefs        635579955                       # Number of memory refs (Count)
system.cpu0.executeStats0.numMiscRegReads   1466482926                       # Number of times the Misc registers were read (Count)
system.cpu0.executeStats0.numMiscRegWrites         4727                       # Number of times the Misc registers were written (Count)
system.cpu0.executeStats0.numVecAluAccesses            0                       # Number of vector alu accesses (Count)
system.cpu0.executeStats0.numDiscardedOps            0                       # Number of ops (including micro ops) which were discarded before commit (Count)
system.cpu0.fetchStats0.numInsts           1620684764                       # Number of instructions fetched (thread level) (Count)
system.cpu0.fetchStats0.numOps             3636856268                       # Number of ops (including micro ops) fetched (thread level) (Count)
system.cpu0.fetchStats0.fetchRate            0.271374                       # Number of inst fetches per cycle ((Count/Cycle))
system.cpu0.fetchStats0.numBranches         556047604                       # Number of branches fetched (Count)
system.cpu0.fetchStats0.branchRate           0.093107                       # Number of branch fetches per cycle (Ratio)
system.cpu0.fetchStats0.numFetchSuspends            0                       # Number of times Execute suspended instruction fetching (Count)
system.cpu0.interrupts.clk_domain.clock          8000                       # Clock period in ticks (Tick)
system.cpu0.mmu.dtb.rdAccesses              325679116                       # TLB accesses on read requests (Count)
system.cpu0.mmu.dtb.wrAccesses              310536251                       # TLB accesses on write requests (Count)
system.cpu0.mmu.dtb.rdMisses                    28663                       # TLB misses on read requests (Count)
system.cpu0.mmu.dtb.wrMisses                    22896                       # TLB misses on write requests (Count)
system.cpu0.mmu.dtb.walker.power_state.pwrStateResidencyTicks::UNDEFINED 2986070315500                       # Cumulative time (in ticks) in various power states (Tick)
system.cpu0.mmu.itb.rdAccesses                      0                       # TLB accesses on read requests (Count)
system.cpu0.mmu.itb.wrAccesses             2132425440                       # TLB accesses on write requests (Count)
system.cpu0.mmu.itb.rdMisses                        0                       # TLB misses on read requests (Count)
system.cpu0.mmu.itb.wrMisses                     4537                       # TLB misses on write requests (Count)
system.cpu0.mmu.itb.walker.power_state.pwrStateResidencyTicks::UNDEFINED 2986070315500                       # Cumulative time (in ticks) in various power states (Tick)
system.cpu0.power_state.numTransitions              6                       # Number of power state transitions (Count)
system.cpu0.power_state.ticksClkGated::samples            3                       # Distribution of time spent in the clock gated state (Tick)
system.cpu0.power_state.ticksClkGated::mean 1399026333.333333                       # Distribution of time spent in the clock gated state (Tick)
system.cpu0.power_state.ticksClkGated::stdev 2326705643.897845                       # Distribution of time spent in the clock gated state (Tick)
system.cpu0.power_state.ticksClkGated::1000-5e+10            3    100.00%    100.00% # Distribution of time spent in the clock gated state (Tick)
system.cpu0.power_state.ticksClkGated::min_value     36588000                       # Distribution of time spent in the clock gated state (Tick)
system.cpu0.power_state.ticksClkGated::max_value   4085583500                       # Distribution of time spent in the clock gated state (Tick)
system.cpu0.power_state.ticksClkGated::total            3                       # Distribution of time spent in the clock gated state (Tick)
system.cpu0.power_state.pwrStateResidencyTicks::ON 2981873236500                       # Cumulative time (in ticks) in various power states (Tick)
system.cpu0.power_state.pwrStateResidencyTicks::CLK_GATED   4197079000                       # Cumulative time (in ticks) in various power states (Tick)
system.cpu0.thread_0.numInsts                       0                       # Number of Instructions committed (Count)
system.cpu0.thread_0.numOps                         0                       # Number of Ops committed (Count)
system.cpu0.thread_0.numMemRefs                     0                       # Number of Memory References (Count)
system.cpu0.workload.numSyscalls             18047027                       # Number of system calls (Count)
system.cpu0.workload.drivers0.device.dispatcher.numKernelLaunched           17                       # number of kernel launched (Unspecified)
system.cpu0.workload.drivers0.device.dispatcher.cyclesWaitingForDispatch        78519                       # number of cycles with outstanding wavefronts that are waiting to be dispatched (Unspecified)
system.cpu0.workload.drivers0.device.hsapp.power_state.pwrStateResidencyTicks::UNDEFINED 2986070315500                       # Cumulative time (in ticks) in various power states (Tick)
system.cpu0.workload.drivers0.device.hsapp.walker.power_state.pwrStateResidencyTicks::UNDEFINED 2986070315500                       # Cumulative time (in ticks) in various power states (Tick)
system.cpu0.workload.drivers0.device.power_state.pwrStateResidencyTicks::UNDEFINED 2986070315500                       # Cumulative time (in ticks) in various power states (Tick)
system.cpu0.workload.drivers0.device.walker.power_state.pwrStateResidencyTicks::UNDEFINED 2986070315500                       # Cumulative time (in ticks) in various power states (Tick)
system.cpu1.numCycles                      3244931144                       # Number of cpu cycles simulated (Cycle)
system.cpu1.cpi                           9393.807610                       # CPI: cycles per instruction (core level) ((Cycle/Count))
system.cpu1.ipc                              0.000106                       # IPC: instructions per cycle (core level) ((Count/Cycle))
system.cpu1.numWorkItemsStarted                     0                       # Number of work items this cpu started (Count)
system.cpu1.numWorkItemsCompleted                   0                       # Number of work items this cpu completed (Count)
system.cpu1.clk_domain.clock                      500                       # Clock period in ticks (Tick)
system.cpu1.clk_domain.voltage_domain.voltage            1                       # Voltage in Volts (Volt)
system.cpu1.commitStats0.numInsts              345433                       # Number of instructions committed (thread level) (Count)
system.cpu1.commitStats0.numOps                643321                       # Number of ops (including micro ops) committed (thread level) (Count)
system.cpu1.commitStats0.numInstsNotNOP             0                       # Number of instructions committed excluding NOPs or prefetches (Count)
system.cpu1.commitStats0.numOpsNotNOP               0                       # Number of Ops (including micro ops) Simulated (Count)
system.cpu1.commitStats0.cpi              9393.807610                       # CPI: cycles per instruction (thread level) ((Cycle/Count))
system.cpu1.commitStats0.ipc                 0.000106                       # IPC: instructions per cycle (thread level) ((Count/Cycle))
system.cpu1.commitStats0.numMemRefs                 0                       # Number of memory references committed (Count)
system.cpu1.commitStats0.numFpInsts             20246                       # Number of float instructions (Count)
system.cpu1.commitStats0.numIntInsts           619917                       # Number of integer instructions (Count)
system.cpu1.commitStats0.numLoadInsts          143870                       # Number of load instructions (Count)
system.cpu1.commitStats0.numStoreInsts          14736                       # Number of store instructions (Count)
system.cpu1.commitStats0.numVecInsts                0                       # Number of vector instructions (Count)
system.cpu1.commitStats0.committedInstType::No_OpClass        10527      1.64%      1.64% # Class of committed instruction. (Count)
system.cpu1.commitStats0.committedInstType::IntAlu       460066     71.51%     73.15% # Class of committed instruction. (Count)
system.cpu1.commitStats0.committedInstType::IntMult            3      0.00%     73.15% # Class of committed instruction. (Count)
system.cpu1.commitStats0.committedInstType::IntDiv           75      0.01%     73.16% # Class of committed instruction. (Count)
system.cpu1.commitStats0.committedInstType::FloatAdd         2864      0.45%     73.61% # Class of committed instruction. (Count)
system.cpu1.commitStats0.committedInstType::FloatCmp            0      0.00%     73.61% # Class of committed instruction. (Count)
system.cpu1.commitStats0.committedInstType::FloatCvt           48      0.01%     73.62% # Class of committed instruction. (Count)
system.cpu1.commitStats0.committedInstType::FloatMult            0      0.00%     73.62% # Class of committed instruction. (Count)
system.cpu1.commitStats0.committedInstType::FloatMultAcc            0      0.00%     73.62% # Class of committed instruction. (Count)
system.cpu1.commitStats0.committedInstType::FloatDiv            0      0.00%     73.62% # Class of committed instruction. (Count)
system.cpu1.commitStats0.committedInstType::FloatMisc            0      0.00%     73.62% # Class of committed instruction. (Count)
system.cpu1.commitStats0.committedInstType::FloatSqrt            0      0.00%     73.62% # Class of committed instruction. (Count)
system.cpu1.commitStats0.committedInstType::SimdAdd           20      0.00%     73.62% # Class of committed instruction. (Count)
system.cpu1.commitStats0.committedInstType::SimdAddAcc            0      0.00%     73.62% # Class of committed instruction. (Count)
system.cpu1.commitStats0.committedInstType::SimdAlu         2756      0.43%     74.05% # Class of committed instruction. (Count)
system.cpu1.commitStats0.committedInstType::SimdCmp            0      0.00%     74.05% # Class of committed instruction. (Count)
system.cpu1.commitStats0.committedInstType::SimdCvt           40      0.01%     74.05% # Class of committed instruction. (Count)
system.cpu1.commitStats0.committedInstType::SimdMisc         1543      0.24%     74.29% # Class of committed instruction. (Count)
system.cpu1.commitStats0.committedInstType::SimdMult            0      0.00%     74.29% # Class of committed instruction. (Count)
system.cpu1.commitStats0.committedInstType::SimdMultAcc            0      0.00%     74.29% # Class of committed instruction. (Count)
system.cpu1.commitStats0.committedInstType::SimdMatMultAcc            0      0.00%     74.29% # Class of committed instruction. (Count)
system.cpu1.commitStats0.committedInstType::SimdShift           21      0.00%     74.30% # Class of committed instruction. (Count)
system.cpu1.commitStats0.committedInstType::SimdShiftAcc            0      0.00%     74.30% # Class of committed instruction. (Count)
system.cpu1.commitStats0.committedInstType::SimdDiv            0      0.00%     74.30% # Class of committed instruction. (Count)
system.cpu1.commitStats0.committedInstType::SimdSqrt            0      0.00%     74.30% # Class of committed instruction. (Count)
system.cpu1.commitStats0.committedInstType::SimdFloatAdd         1350      0.21%     74.51% # Class of committed instruction. (Count)
system.cpu1.commitStats0.committedInstType::SimdFloatAlu            0      0.00%     74.51% # Class of committed instruction. (Count)
system.cpu1.commitStats0.committedInstType::SimdFloatCmp            0      0.00%     74.51% # Class of committed instruction. (Count)
system.cpu1.commitStats0.committedInstType::SimdFloatCvt         4044      0.63%     75.13% # Class of committed instruction. (Count)
system.cpu1.commitStats0.committedInstType::SimdFloatDiv            7      0.00%     75.14% # Class of committed instruction. (Count)
system.cpu1.commitStats0.committedInstType::SimdFloatMisc            0      0.00%     75.14% # Class of committed instruction. (Count)
system.cpu1.commitStats0.committedInstType::SimdFloatMult         1351      0.21%     75.35% # Class of committed instruction. (Count)
system.cpu1.commitStats0.committedInstType::SimdFloatMultAcc            0      0.00%     75.35% # Class of committed instruction. (Count)
system.cpu1.commitStats0.committedInstType::SimdFloatMatMultAcc            0      0.00%     75.35% # Class of committed instruction. (Count)
system.cpu1.commitStats0.committedInstType::SimdFloatSqrt            0      0.00%     75.35% # Class of committed instruction. (Count)
system.cpu1.commitStats0.committedInstType::SimdReduceAdd            0      0.00%     75.35% # Class of committed instruction. (Count)
system.cpu1.commitStats0.committedInstType::SimdReduceAlu            0      0.00%     75.35% # Class of committed instruction. (Count)
system.cpu1.commitStats0.committedInstType::SimdReduceCmp            0      0.00%     75.35% # Class of committed instruction. (Count)
system.cpu1.commitStats0.committedInstType::SimdFloatReduceAdd            0      0.00%     75.35% # Class of committed instruction. (Count)
system.cpu1.commitStats0.committedInstType::SimdFloatReduceCmp            0      0.00%     75.35% # Class of committed instruction. (Count)
system.cpu1.commitStats0.committedInstType::SimdAes            0      0.00%     75.35% # Class of committed instruction. (Count)
system.cpu1.commitStats0.committedInstType::SimdAesMix            0      0.00%     75.35% # Class of committed instruction. (Count)
system.cpu1.commitStats0.committedInstType::SimdSha1Hash            0      0.00%     75.35% # Class of committed instruction. (Count)
system.cpu1.commitStats0.committedInstType::SimdSha1Hash2            0      0.00%     75.35% # Class of committed instruction. (Count)
system.cpu1.commitStats0.committedInstType::SimdSha256Hash            0      0.00%     75.35% # Class of committed instruction. (Count)
system.cpu1.commitStats0.committedInstType::SimdSha256Hash2            0      0.00%     75.35% # Class of committed instruction. (Count)
system.cpu1.commitStats0.committedInstType::SimdShaSigma2            0      0.00%     75.35% # Class of committed instruction. (Count)
system.cpu1.commitStats0.committedInstType::SimdShaSigma3            0      0.00%     75.35% # Class of committed instruction. (Count)
system.cpu1.commitStats0.committedInstType::SimdPredAlu            0      0.00%     75.35% # Class of committed instruction. (Count)
system.cpu1.commitStats0.committedInstType::Matrix            0      0.00%     75.35% # Class of committed instruction. (Count)
system.cpu1.commitStats0.committedInstType::MatrixMov            0      0.00%     75.35% # Class of committed instruction. (Count)
system.cpu1.commitStats0.committedInstType::MatrixOP            0      0.00%     75.35% # Class of committed instruction. (Count)
system.cpu1.commitStats0.committedInstType::MemRead       138319     21.50%     96.85% # Class of committed instruction. (Count)
system.cpu1.commitStats0.committedInstType::MemWrite        14239      2.21%     99.06% # Class of committed instruction. (Count)
system.cpu1.commitStats0.committedInstType::FloatMemRead         5551      0.86%     99.92% # Class of committed instruction. (Count)
system.cpu1.commitStats0.committedInstType::FloatMemWrite          497      0.08%    100.00% # Class of committed instruction. (Count)
system.cpu1.commitStats0.committedInstType::IprAccess            0      0.00%    100.00% # Class of committed instruction. (Count)
system.cpu1.commitStats0.committedInstType::InstPrefetch            0      0.00%    100.00% # Class of committed instruction. (Count)
system.cpu1.commitStats0.committedInstType::VectorUnitStrideLoad            0      0.00%    100.00% # Class of committed instruction. (Count)
system.cpu1.commitStats0.committedInstType::VectorUnitStrideStore            0      0.00%    100.00% # Class of committed instruction. (Count)
system.cpu1.commitStats0.committedInstType::VectorUnitStrideMaskLoad            0      0.00%    100.00% # Class of committed instruction. (Count)
system.cpu1.commitStats0.committedInstType::VectorUnitStrideMaskStore            0      0.00%    100.00% # Class of committed instruction. (Count)
system.cpu1.commitStats0.committedInstType::VectorStridedLoad            0      0.00%    100.00% # Class of committed instruction. (Count)
system.cpu1.commitStats0.committedInstType::VectorStridedStore            0      0.00%    100.00% # Class of committed instruction. (Count)
system.cpu1.commitStats0.committedInstType::VectorIndexedLoad            0      0.00%    100.00% # Class of committed instruction. (Count)
system.cpu1.commitStats0.committedInstType::VectorIndexedStore            0      0.00%    100.00% # Class of committed instruction. (Count)
system.cpu1.commitStats0.committedInstType::VectorUnitStrideFaultOnlyFirstLoad            0      0.00%    100.00% # Class of committed instruction. (Count)
system.cpu1.commitStats0.committedInstType::VectorWholeRegisterLoad            0      0.00%    100.00% # Class of committed instruction. (Count)
system.cpu1.commitStats0.committedInstType::VectorWholeRegisterStore            0      0.00%    100.00% # Class of committed instruction. (Count)
system.cpu1.commitStats0.committedInstType::VectorIntegerArith            0      0.00%    100.00% # Class of committed instruction. (Count)
system.cpu1.commitStats0.committedInstType::VectorFloatArith            0      0.00%    100.00% # Class of committed instruction. (Count)
system.cpu1.commitStats0.committedInstType::VectorFloatConvert            0      0.00%    100.00% # Class of committed instruction. (Count)
system.cpu1.commitStats0.committedInstType::VectorIntegerReduce            0      0.00%    100.00% # Class of committed instruction. (Count)
system.cpu1.commitStats0.committedInstType::VectorFloatReduce            0      0.00%    100.00% # Class of committed instruction. (Count)
system.cpu1.commitStats0.committedInstType::VectorMisc            0      0.00%    100.00% # Class of committed instruction. (Count)
system.cpu1.commitStats0.committedInstType::VectorIntegerExtension            0      0.00%    100.00% # Class of committed instruction. (Count)
system.cpu1.commitStats0.committedInstType::VectorConfig            0      0.00%    100.00% # Class of committed instruction. (Count)
system.cpu1.commitStats0.committedInstType::total       643321                       # Class of committed instruction. (Count)
system.cpu1.commitStats0.committedControl::IsControl       110126                       # Class of control type instructions committed (Count)
system.cpu1.commitStats0.committedControl::IsDirectControl        92072                       # Class of control type instructions committed (Count)
system.cpu1.commitStats0.committedControl::IsIndirectControl        18051                       # Class of control type instructions committed (Count)
system.cpu1.commitStats0.committedControl::IsCondControl        89336                       # Class of control type instructions committed (Count)
system.cpu1.commitStats0.committedControl::IsUncondControl        20787                       # Class of control type instructions committed (Count)
system.cpu1.commitStats0.committedControl::IsCall         9058                       # Class of control type instructions committed (Count)
system.cpu1.commitStats0.committedControl::IsReturn         9050                       # Class of control type instructions committed (Count)
system.cpu1.exec_context.thread_0.numMatAluAccesses            0                       # Number of matrix alu accesses (Count)
system.cpu1.exec_context.thread_0.numCallsReturns        18108                       # Number of times a function call or return occured (Count)
system.cpu1.exec_context.thread_0.numMatInsts            0                       # Number of matrix instructions (Count)
system.cpu1.exec_context.thread_0.numIdleCycles 3244203383.720685                       # Number of idle cycles (Cycle)
system.cpu1.exec_context.thread_0.numBusyCycles 727760.279314                       # Number of busy cycles (Cycle)
system.cpu1.exec_context.thread_0.notIdleFraction     0.000224                       # Percentage of non-idle cycles (Ratio)
system.cpu1.exec_context.thread_0.idleFraction     0.999776                       # Percentage of idle cycles (Ratio)
system.cpu1.executeStats0.numInsts                  0                       # Number of executed instructions (Count)
system.cpu1.executeStats0.numNop                    0                       # Number of nop insts executed (Count)
system.cpu1.executeStats0.numBranches               0                       # Number of branches executed (Count)
system.cpu1.executeStats0.numLoadInsts              0                       # Number of load instructions executed (Count)
system.cpu1.executeStats0.numStoreInsts        158606                       # Number of stores executed (Count)
system.cpu1.executeStats0.instRate                  0                       # Inst execution rate ((Count/Cycle))
system.cpu1.executeStats0.numFpAluAccesses        20246                       # Number of float alu accesses (Count)
system.cpu1.executeStats0.numFpRegReads         24366                       # Number of times the floating registers were read (Count)
system.cpu1.executeStats0.numFpRegWrites        16992                       # Number of times the floating registers were written (Count)
system.cpu1.executeStats0.numIntAluAccesses       619917                       # Number of integer alu accesses (Count)
system.cpu1.executeStats0.numIntRegReads       675366                       # Number of times the integer registers were read (Count)
system.cpu1.executeStats0.numIntRegWrites       403033                       # Number of times the integer registers were written (Count)
system.cpu1.executeStats0.numMemRefs           158606                       # Number of memory refs (Count)
system.cpu1.executeStats0.numMiscRegReads       373911                       # Number of times the Misc registers were read (Count)
system.cpu1.executeStats0.numMiscRegWrites           27                       # Number of times the Misc registers were written (Count)
system.cpu1.executeStats0.numVecAluAccesses            0                       # Number of vector alu accesses (Count)
system.cpu1.executeStats0.numDiscardedOps            0                       # Number of ops (including micro ops) which were discarded before commit (Count)
system.cpu1.fetchStats0.numInsts               345433                       # Number of instructions fetched (thread level) (Count)
system.cpu1.fetchStats0.numOps                 643321                       # Number of ops (including micro ops) fetched (thread level) (Count)
system.cpu1.fetchStats0.fetchRate            0.000106                       # Number of inst fetches per cycle ((Count/Cycle))
system.cpu1.fetchStats0.numBranches            110126                       # Number of branches fetched (Count)
system.cpu1.fetchStats0.branchRate           0.000034                       # Number of branch fetches per cycle (Ratio)
system.cpu1.fetchStats0.numFetchSuspends            0                       # Number of times Execute suspended instruction fetching (Count)
system.cpu1.interrupts.clk_domain.clock          8000                       # Clock period in ticks (Tick)
system.cpu1.mmu.dtb.rdAccesses                 143870                       # TLB accesses on read requests (Count)
system.cpu1.mmu.dtb.wrAccesses                  14736                       # TLB accesses on write requests (Count)
system.cpu1.mmu.dtb.rdMisses                      154                       # TLB misses on read requests (Count)
system.cpu1.mmu.dtb.wrMisses                        4                       # TLB misses on write requests (Count)
system.cpu1.mmu.dtb.walker.power_state.pwrStateResidencyTicks::UNDEFINED 2986070315500                       # Cumulative time (in ticks) in various power states (Tick)
system.cpu1.mmu.itb.rdAccesses                      0                       # TLB accesses on read requests (Count)
system.cpu1.mmu.itb.wrAccesses                 456294                       # TLB accesses on write requests (Count)
system.cpu1.mmu.itb.rdMisses                        0                       # TLB misses on read requests (Count)
system.cpu1.mmu.itb.wrMisses                      130                       # TLB misses on write requests (Count)
system.cpu1.mmu.itb.walker.power_state.pwrStateResidencyTicks::UNDEFINED 2986070315500                       # Cumulative time (in ticks) in various power states (Tick)
system.cpu1.power_state.numTransitions              3                       # Number of power state transitions (Count)
system.cpu1.power_state.ticksClkGated::samples            2                       # Distribution of time spent in the clock gated state (Tick)
system.cpu1.power_state.ticksClkGated::mean 683186212500                       # Distribution of time spent in the clock gated state (Tick)
system.cpu1.power_state.ticksClkGated::stdev 962257114630.178223                       # Distribution of time spent in the clock gated state (Tick)
system.cpu1.power_state.ticksClkGated::1000-5e+10            1     50.00%     50.00% # Distribution of time spent in the clock gated state (Tick)
system.cpu1.power_state.ticksClkGated::overflows            1     50.00%    100.00% # Distribution of time spent in the clock gated state (Tick)
system.cpu1.power_state.ticksClkGated::min_value   2767681500                       # Distribution of time spent in the clock gated state (Tick)
system.cpu1.power_state.ticksClkGated::max_value 1363604743500                       # Distribution of time spent in the clock gated state (Tick)
system.cpu1.power_state.ticksClkGated::total            2                       # Distribution of time spent in the clock gated state (Tick)
system.cpu1.power_state.pwrStateResidencyTicks::ON 1619697890500                       # Cumulative time (in ticks) in various power states (Tick)
system.cpu1.power_state.pwrStateResidencyTicks::CLK_GATED 1366372425000                       # Cumulative time (in ticks) in various power states (Tick)
system.cpu1.thread_0.numInsts                       0                       # Number of Instructions committed (Count)
system.cpu1.thread_0.numOps                         0                       # Number of Ops committed (Count)
system.cpu1.thread_0.numMemRefs                     0                       # Number of Memory References (Count)
system.cpu2.numCycles                      3978487643                       # Number of cpu cycles simulated (Cycle)
system.cpu2.cpi                            996.768951                       # CPI: cycles per instruction (core level) ((Cycle/Count))
system.cpu2.ipc                              0.001003                       # IPC: instructions per cycle (core level) ((Count/Cycle))
system.cpu2.numWorkItemsStarted                     0                       # Number of work items this cpu started (Count)
system.cpu2.numWorkItemsCompleted                   0                       # Number of work items this cpu completed (Count)
system.cpu2.clk_domain.clock                      500                       # Clock period in ticks (Tick)
system.cpu2.clk_domain.voltage_domain.voltage            1                       # Voltage in Volts (Volt)
system.cpu2.commitStats0.numInsts             3991384                       # Number of instructions committed (thread level) (Count)
system.cpu2.commitStats0.numOps               8922725                       # Number of ops (including micro ops) committed (thread level) (Count)
system.cpu2.commitStats0.numInstsNotNOP             0                       # Number of instructions committed excluding NOPs or prefetches (Count)
system.cpu2.commitStats0.numOpsNotNOP               0                       # Number of Ops (including micro ops) Simulated (Count)
system.cpu2.commitStats0.cpi               996.768951                       # CPI: cycles per instruction (thread level) ((Cycle/Count))
system.cpu2.commitStats0.ipc                 0.001003                       # IPC: instructions per cycle (thread level) ((Count/Cycle))
system.cpu2.commitStats0.numMemRefs                 0                       # Number of memory references committed (Count)
system.cpu2.commitStats0.numFpInsts           2714962                       # Number of float instructions (Count)
system.cpu2.commitStats0.numIntInsts          8118563                       # Number of integer instructions (Count)
system.cpu2.commitStats0.numLoadInsts         1994934                       # Number of load instructions (Count)
system.cpu2.commitStats0.numStoreInsts        2174989                       # Number of store instructions (Count)
system.cpu2.commitStats0.numVecInsts                0                       # Number of vector instructions (Count)
system.cpu2.commitStats0.committedInstType::No_OpClass       679022      7.61%      7.61% # Class of committed instruction. (Count)
system.cpu2.commitStats0.committedInstType::IntAlu      3974635     44.55%     52.16% # Class of committed instruction. (Count)
system.cpu2.commitStats0.committedInstType::IntMult         1413      0.02%     52.17% # Class of committed instruction. (Count)
system.cpu2.commitStats0.committedInstType::IntDiv         2201      0.02%     52.20% # Class of committed instruction. (Count)
system.cpu2.commitStats0.committedInstType::FloatAdd        16728      0.19%     52.38% # Class of committed instruction. (Count)
system.cpu2.commitStats0.committedInstType::FloatCmp            3      0.00%     52.38% # Class of committed instruction. (Count)
system.cpu2.commitStats0.committedInstType::FloatCvt          530      0.01%     52.39% # Class of committed instruction. (Count)
system.cpu2.commitStats0.committedInstType::FloatMult            1      0.00%     52.39% # Class of committed instruction. (Count)
system.cpu2.commitStats0.committedInstType::FloatMultAcc            0      0.00%     52.39% # Class of committed instruction. (Count)
system.cpu2.commitStats0.committedInstType::FloatDiv            1      0.00%     52.39% # Class of committed instruction. (Count)
system.cpu2.commitStats0.committedInstType::FloatMisc            0      0.00%     52.39% # Class of committed instruction. (Count)
system.cpu2.commitStats0.committedInstType::FloatSqrt            0      0.00%     52.39% # Class of committed instruction. (Count)
system.cpu2.commitStats0.committedInstType::SimdAdd          410      0.00%     52.39% # Class of committed instruction. (Count)
system.cpu2.commitStats0.committedInstType::SimdAddAcc            0      0.00%     52.39% # Class of committed instruction. (Count)
system.cpu2.commitStats0.committedInstType::SimdAlu        24542      0.28%     52.67% # Class of committed instruction. (Count)
system.cpu2.commitStats0.committedInstType::SimdCmp           12      0.00%     52.67% # Class of committed instruction. (Count)
system.cpu2.commitStats0.committedInstType::SimdCvt          558      0.01%     52.68% # Class of committed instruction. (Count)
system.cpu2.commitStats0.committedInstType::SimdMisc         9797      0.11%     52.78% # Class of committed instruction. (Count)
system.cpu2.commitStats0.committedInstType::SimdMult            0      0.00%     52.78% # Class of committed instruction. (Count)
system.cpu2.commitStats0.committedInstType::SimdMultAcc            0      0.00%     52.78% # Class of committed instruction. (Count)
system.cpu2.commitStats0.committedInstType::SimdMatMultAcc            0      0.00%     52.78% # Class of committed instruction. (Count)
system.cpu2.commitStats0.committedInstType::SimdShift          283      0.00%     52.79% # Class of committed instruction. (Count)
system.cpu2.commitStats0.committedInstType::SimdShiftAcc            0      0.00%     52.79% # Class of committed instruction. (Count)
system.cpu2.commitStats0.committedInstType::SimdDiv            0      0.00%     52.79% # Class of committed instruction. (Count)
system.cpu2.commitStats0.committedInstType::SimdSqrt            0      0.00%     52.79% # Class of committed instruction. (Count)
system.cpu2.commitStats0.committedInstType::SimdFloatAdd         8696      0.10%     52.89% # Class of committed instruction. (Count)
system.cpu2.commitStats0.committedInstType::SimdFloatAlu            0      0.00%     52.89% # Class of committed instruction. (Count)
system.cpu2.commitStats0.committedInstType::SimdFloatCmp            0      0.00%     52.89% # Class of committed instruction. (Count)
system.cpu2.commitStats0.committedInstType::SimdFloatCvt        25263      0.28%     53.17% # Class of committed instruction. (Count)
system.cpu2.commitStats0.committedInstType::SimdFloatDiv            7      0.00%     53.17% # Class of committed instruction. (Count)
system.cpu2.commitStats0.committedInstType::SimdFloatMisc            0      0.00%     53.17% # Class of committed instruction. (Count)
system.cpu2.commitStats0.committedInstType::SimdFloatMult         8700      0.10%     53.27% # Class of committed instruction. (Count)
system.cpu2.commitStats0.committedInstType::SimdFloatMultAcc            0      0.00%     53.27% # Class of committed instruction. (Count)
system.cpu2.commitStats0.committedInstType::SimdFloatMatMultAcc            0      0.00%     53.27% # Class of committed instruction. (Count)
system.cpu2.commitStats0.committedInstType::SimdFloatSqrt            0      0.00%     53.27% # Class of committed instruction. (Count)
system.cpu2.commitStats0.committedInstType::SimdReduceAdd            0      0.00%     53.27% # Class of committed instruction. (Count)
system.cpu2.commitStats0.committedInstType::SimdReduceAlu            0      0.00%     53.27% # Class of committed instruction. (Count)
system.cpu2.commitStats0.committedInstType::SimdReduceCmp            0      0.00%     53.27% # Class of committed instruction. (Count)
system.cpu2.commitStats0.committedInstType::SimdFloatReduceAdd            0      0.00%     53.27% # Class of committed instruction. (Count)
system.cpu2.commitStats0.committedInstType::SimdFloatReduceCmp            0      0.00%     53.27% # Class of committed instruction. (Count)
system.cpu2.commitStats0.committedInstType::SimdAes            0      0.00%     53.27% # Class of committed instruction. (Count)
system.cpu2.commitStats0.committedInstType::SimdAesMix            0      0.00%     53.27% # Class of committed instruction. (Count)
system.cpu2.commitStats0.committedInstType::SimdSha1Hash            0      0.00%     53.27% # Class of committed instruction. (Count)
system.cpu2.commitStats0.committedInstType::SimdSha1Hash2            0      0.00%     53.27% # Class of committed instruction. (Count)
system.cpu2.commitStats0.committedInstType::SimdSha256Hash            0      0.00%     53.27% # Class of committed instruction. (Count)
system.cpu2.commitStats0.committedInstType::SimdSha256Hash2            0      0.00%     53.27% # Class of committed instruction. (Count)
system.cpu2.commitStats0.committedInstType::SimdShaSigma2            0      0.00%     53.27% # Class of committed instruction. (Count)
system.cpu2.commitStats0.committedInstType::SimdShaSigma3            0      0.00%     53.27% # Class of committed instruction. (Count)
system.cpu2.commitStats0.committedInstType::SimdPredAlu            0      0.00%     53.27% # Class of committed instruction. (Count)
system.cpu2.commitStats0.committedInstType::Matrix            0      0.00%     53.27% # Class of committed instruction. (Count)
system.cpu2.commitStats0.committedInstType::MatrixMov            0      0.00%     53.27% # Class of committed instruction. (Count)
system.cpu2.commitStats0.committedInstType::MatrixOP            0      0.00%     53.27% # Class of committed instruction. (Count)
system.cpu2.commitStats0.committedInstType::MemRead       677421      7.59%     60.86% # Class of committed instruction. (Count)
system.cpu2.commitStats0.committedInstType::MemWrite       873743      9.79%     70.65% # Class of committed instruction. (Count)
system.cpu2.commitStats0.committedInstType::FloatMemRead      1317513     14.77%     85.42% # Class of committed instruction. (Count)
system.cpu2.commitStats0.committedInstType::FloatMemWrite      1301246     14.58%    100.00% # Class of committed instruction. (Count)
system.cpu2.commitStats0.committedInstType::IprAccess            0      0.00%    100.00% # Class of committed instruction. (Count)
system.cpu2.commitStats0.committedInstType::InstPrefetch            0      0.00%    100.00% # Class of committed instruction. (Count)
system.cpu2.commitStats0.committedInstType::VectorUnitStrideLoad            0      0.00%    100.00% # Class of committed instruction. (Count)
system.cpu2.commitStats0.committedInstType::VectorUnitStrideStore            0      0.00%    100.00% # Class of committed instruction. (Count)
system.cpu2.commitStats0.committedInstType::VectorUnitStrideMaskLoad            0      0.00%    100.00% # Class of committed instruction. (Count)
system.cpu2.commitStats0.committedInstType::VectorUnitStrideMaskStore            0      0.00%    100.00% # Class of committed instruction. (Count)
system.cpu2.commitStats0.committedInstType::VectorStridedLoad            0      0.00%    100.00% # Class of committed instruction. (Count)
system.cpu2.commitStats0.committedInstType::VectorStridedStore            0      0.00%    100.00% # Class of committed instruction. (Count)
system.cpu2.commitStats0.committedInstType::VectorIndexedLoad            0      0.00%    100.00% # Class of committed instruction. (Count)
system.cpu2.commitStats0.committedInstType::VectorIndexedStore            0      0.00%    100.00% # Class of committed instruction. (Count)
system.cpu2.commitStats0.committedInstType::VectorUnitStrideFaultOnlyFirstLoad            0      0.00%    100.00% # Class of committed instruction. (Count)
system.cpu2.commitStats0.committedInstType::VectorWholeRegisterLoad            0      0.00%    100.00% # Class of committed instruction. (Count)
system.cpu2.commitStats0.committedInstType::VectorWholeRegisterStore            0      0.00%    100.00% # Class of committed instruction. (Count)
system.cpu2.commitStats0.committedInstType::VectorIntegerArith            0      0.00%    100.00% # Class of committed instruction. (Count)
system.cpu2.commitStats0.committedInstType::VectorFloatArith            0      0.00%    100.00% # Class of committed instruction. (Count)
system.cpu2.commitStats0.committedInstType::VectorFloatConvert            0      0.00%    100.00% # Class of committed instruction. (Count)
system.cpu2.commitStats0.committedInstType::VectorIntegerReduce            0      0.00%    100.00% # Class of committed instruction. (Count)
system.cpu2.commitStats0.committedInstType::VectorFloatReduce            0      0.00%    100.00% # Class of committed instruction. (Count)
system.cpu2.commitStats0.committedInstType::VectorMisc            0      0.00%    100.00% # Class of committed instruction. (Count)
system.cpu2.commitStats0.committedInstType::VectorIntegerExtension            0      0.00%    100.00% # Class of committed instruction. (Count)
system.cpu2.commitStats0.committedInstType::VectorConfig            0      0.00%    100.00% # Class of committed instruction. (Count)
system.cpu2.commitStats0.committedInstType::total      8922725                       # Class of committed instruction. (Count)
system.cpu2.commitStats0.committedControl::IsControl       495200                       # Class of control type instructions committed (Count)
system.cpu2.commitStats0.committedControl::IsDirectControl       451456                       # Class of control type instructions committed (Count)
system.cpu2.commitStats0.committedControl::IsIndirectControl        43701                       # Class of control type instructions committed (Count)
system.cpu2.commitStats0.committedControl::IsCondControl       399093                       # Class of control type instructions committed (Count)
system.cpu2.commitStats0.committedControl::IsUncondControl        96064                       # Class of control type instructions committed (Count)
system.cpu2.commitStats0.committedControl::IsCall        28267                       # Class of control type instructions committed (Count)
system.cpu2.commitStats0.committedControl::IsReturn        28257                       # Class of control type instructions committed (Count)
system.cpu2.exec_context.thread_0.numMatAluAccesses            0                       # Number of matrix alu accesses (Count)
system.cpu2.exec_context.thread_0.numCallsReturns        56524                       # Number of times a function call or return occured (Count)
system.cpu2.exec_context.thread_0.numMatInsts            0                       # Number of matrix instructions (Count)
system.cpu2.exec_context.thread_0.numIdleCycles 3888210903.911936                       # Number of idle cycles (Cycle)
system.cpu2.exec_context.thread_0.numBusyCycles 90276739.088064                       # Number of busy cycles (Cycle)
system.cpu2.exec_context.thread_0.notIdleFraction     0.022691                       # Percentage of non-idle cycles (Ratio)
system.cpu2.exec_context.thread_0.idleFraction     0.977309                       # Percentage of idle cycles (Ratio)
system.cpu2.executeStats0.numInsts                  0                       # Number of executed instructions (Count)
system.cpu2.executeStats0.numNop                    0                       # Number of nop insts executed (Count)
system.cpu2.executeStats0.numBranches               0                       # Number of branches executed (Count)
system.cpu2.executeStats0.numLoadInsts              0                       # Number of load instructions executed (Count)
system.cpu2.executeStats0.numStoreInsts       4169923                       # Number of stores executed (Count)
system.cpu2.executeStats0.instRate                  0                       # Inst execution rate ((Count/Cycle))
system.cpu2.executeStats0.numFpAluAccesses      2714962                       # Number of float alu accesses (Count)
system.cpu2.executeStats0.numFpRegReads       1468382                       # Number of times the floating registers were read (Count)
system.cpu2.executeStats0.numFpRegWrites      1396319                       # Number of times the floating registers were written (Count)
system.cpu2.executeStats0.numIntAluAccesses      8118563                       # Number of integer alu accesses (Count)
system.cpu2.executeStats0.numIntRegReads      8625810                       # Number of times the integer registers were read (Count)
system.cpu2.executeStats0.numIntRegWrites      3432334                       # Number of times the integer registers were written (Count)
system.cpu2.executeStats0.numMemRefs          4169923                       # Number of memory refs (Count)
system.cpu2.executeStats0.numMiscRegReads      5197250                       # Number of times the Misc registers were read (Count)
system.cpu2.executeStats0.numMiscRegWrites          329                       # Number of times the Misc registers were written (Count)
system.cpu2.executeStats0.numVecAluAccesses            0                       # Number of vector alu accesses (Count)
system.cpu2.executeStats0.numDiscardedOps            0                       # Number of ops (including micro ops) which were discarded before commit (Count)
system.cpu2.fetchStats0.numInsts              3991384                       # Number of instructions fetched (thread level) (Count)
system.cpu2.fetchStats0.numOps                8922725                       # Number of ops (including micro ops) fetched (thread level) (Count)
system.cpu2.fetchStats0.fetchRate            0.001003                       # Number of inst fetches per cycle ((Count/Cycle))
system.cpu2.fetchStats0.numBranches            495200                       # Number of branches fetched (Count)
system.cpu2.fetchStats0.branchRate           0.000124                       # Number of branch fetches per cycle (Ratio)
system.cpu2.fetchStats0.numFetchSuspends            0                       # Number of times Execute suspended instruction fetching (Count)
system.cpu2.interrupts.clk_domain.clock          8000                       # Clock period in ticks (Tick)
system.cpu2.mmu.dtb.rdAccesses                1994966                       # TLB accesses on read requests (Count)
system.cpu2.mmu.dtb.wrAccesses                2175254                       # TLB accesses on write requests (Count)
system.cpu2.mmu.dtb.rdMisses                     3608                       # TLB misses on read requests (Count)
system.cpu2.mmu.dtb.wrMisses                     3079                       # TLB misses on write requests (Count)
system.cpu2.mmu.dtb.walker.power_state.pwrStateResidencyTicks::UNDEFINED 2986070315500                       # Cumulative time (in ticks) in various power states (Tick)
system.cpu2.mmu.itb.rdAccesses                      0                       # TLB accesses on read requests (Count)
system.cpu2.mmu.itb.wrAccesses                6642970                       # TLB accesses on write requests (Count)
system.cpu2.mmu.itb.rdMisses                        0                       # TLB misses on read requests (Count)
system.cpu2.mmu.itb.wrMisses                      445                       # TLB misses on write requests (Count)
system.cpu2.mmu.itb.walker.power_state.pwrStateResidencyTicks::UNDEFINED 2986070315500                       # Cumulative time (in ticks) in various power states (Tick)
system.cpu2.power_state.numTransitions             21                       # Number of power state transitions (Count)
system.cpu2.power_state.ticksClkGated::samples           11                       # Distribution of time spent in the clock gated state (Tick)
system.cpu2.power_state.ticksClkGated::mean 117938250000                       # Distribution of time spent in the clock gated state (Tick)
system.cpu2.power_state.ticksClkGated::stdev 304782227580.931152                       # Distribution of time spent in the clock gated state (Tick)
system.cpu2.power_state.ticksClkGated::1000-5e+10            9     81.82%     81.82% # Distribution of time spent in the clock gated state (Tick)
system.cpu2.power_state.ticksClkGated::2.5e+11-3e+11            1      9.09%     90.91% # Distribution of time spent in the clock gated state (Tick)
system.cpu2.power_state.ticksClkGated::9.5e+11-1e+12            1      9.09%    100.00% # Distribution of time spent in the clock gated state (Tick)
system.cpu2.power_state.ticksClkGated::min_value      3313000                       # Distribution of time spent in the clock gated state (Tick)
system.cpu2.power_state.ticksClkGated::max_value 996826494000                       # Distribution of time spent in the clock gated state (Tick)
system.cpu2.power_state.ticksClkGated::total           11                       # Distribution of time spent in the clock gated state (Tick)
system.cpu2.power_state.pwrStateResidencyTicks::ON 1688749565500                       # Cumulative time (in ticks) in various power states (Tick)
system.cpu2.power_state.pwrStateResidencyTicks::CLK_GATED 1297320750000                       # Cumulative time (in ticks) in various power states (Tick)
system.cpu2.thread_0.numInsts                       0                       # Number of Instructions committed (Count)
system.cpu2.thread_0.numOps                         0                       # Number of Ops committed (Count)
system.cpu2.thread_0.numMemRefs                     0                       # Number of Memory References (Count)
system.cpu3.allLatencyDist::bucket_size         10000                       # delay distribution for all (Unspecified)
system.cpu3.allLatencyDist::min_bucket              0                       # delay distribution for all (Unspecified)
system.cpu3.allLatencyDist::max_bucket        1600000                       # delay distribution for all (Unspecified)
system.cpu3.allLatencyDist::samples          12138279                       # delay distribution for all (Unspecified)
system.cpu3.allLatencyDist::mean         1525066.341118                       # delay distribution for all (Unspecified)
system.cpu3.allLatencyDist::stdev        1101082.102220                       # delay distribution for all (Unspecified)
system.cpu3.allLatencyDist::underflows              0      0.00%      0.00% # delay distribution for all (Unspecified)
system.cpu3.allLatencyDist               |           0      0.00%      0.00% |           0      0.00%      0.00% |           0      0.00%      0.00% |           0      0.00%      0.00% |           0      0.00%      0.00% |           0      0.00%      0.00% |           0      0.00%      0.00% |           0      0.00%      0.00% |           0      0.00%      0.00% |           0      0.00%      0.00% |       43695      0.36%      0.36% |        4445      0.04%      0.40% |        4150      0.03%      0.43% |        2908      0.02%      0.45% |        2328      0.02%      0.47% |        2264      0.02%      0.49% |        3932      0.03%      0.52% |       99219      0.82%      1.34% |       18276      0.15%      1.49% |        9568      0.08%      1.57% |        7597      0.06%      1.63% |        4709      0.04%      1.67% |        4312      0.04%      1.71% |        5449      0.04%      1.75% |        9365      0.08%      1.83% |        5417      0.04%      1.88% |        3352      0.03%      1.90% |        3354      0.03%      1.93% |        3018      0.02%      1.96% |        4225      0.03%      1.99% |        4997      0.04%      2.03% |        5820      0.05%      2.08% |        5957      0.05%      2.13% |        5313      0.04%      2.17% |       53405      0.44%      2.61% |       42173      0.35%      2.96% |       39493      0.33%      3.28% |       39669      0.33%      3.61% |       39709      0.33%      3.94% |       41069      0.34%      4.28% |       43058      0.35%      4.63% |       50392      0.42%      5.05% |       51800      0.43%      5.47% |       51967      0.43%      5.90% |       51792      0.43%      6.33% |       51941      0.43%      6.76% |       52286      0.43%      7.19% |       54725      0.45%      7.64% |       55706      0.46%      8.10% |       55364      0.46%      8.55% |       54922      0.45%      9.01% |       55580      0.46%      9.46% |       55802      0.46%      9.92% |       57046      0.47%     10.39% |       57832      0.48%     10.87% |       57506      0.47%     11.34% |       57469      0.47%     11.82% |       57781      0.48%     12.29% |       58368      0.48%     12.77% |       58357      0.48%     13.25% |       58662      0.48%     13.74% |       59206      0.49%     14.23% |       59959      0.49%     14.72% |       60731      0.50%     15.22% |       60502      0.50%     15.72% |       61151      0.50%     16.22% |       62507      0.51%     16.74% |       62456      0.51%     17.25% |       63634      0.52%     17.78% |       64202      0.53%     18.30% |       64547      0.53%     18.84% |       65329      0.54%     19.37% |       65651      0.54%     19.92% |       65110      0.54%     20.45% |       65962      0.54%     21.00% |       66161      0.55%     21.54% |       65440      0.54%     22.08% |       66340      0.55%     22.63% |       66813      0.55%     23.18% |       67054      0.55%     23.73% |       66918      0.55%     24.28% |       67796      0.56%     24.84% |       68648      0.57%     25.40% |       69814      0.58%     25.98% |       69679      0.57%     26.55% |       69997      0.58%     27.13% |       70744      0.58%     27.71% |       71189      0.59%     28.30% |       70563      0.58%     28.88% |       70562      0.58%     29.46% |       70719      0.58%     30.04% |       70321      0.58%     30.62% |       70867      0.58%     31.21% |       70813      0.58%     31.79% |       70569      0.58%     32.37% |       69732      0.57%     32.95% |       69810      0.58%     33.52% |       69702      0.57%     34.10% |       70001      0.58%     34.67% |       69759      0.57%     35.25% |       70510      0.58%     35.83% |       70649      0.58%     36.41% |       70250      0.58%     36.99% |       71267      0.59%     37.58% |       71019      0.59%     38.16% |       70738      0.58%     38.74% |       70475      0.58%     39.33% |       69990      0.58%     39.90% |       69275      0.57%     40.47% |       68640      0.57%     41.04% |       68095      0.56%     41.60% |       67902      0.56%     42.16% |       68047      0.56%     42.72% |       67901      0.56%     43.28% |       67534      0.56%     43.83% |       66837      0.55%     44.39% |       66850      0.55%     44.94% |       67338      0.55%     45.49% |       67124      0.55%     46.04% |       66663      0.55%     46.59% |       65892      0.54%     47.14% |       66471      0.55%     47.68% |       65730      0.54%     48.23% |       65403      0.54%     48.76% |       64653      0.53%     49.30% |       64347      0.53%     49.83% |       63692      0.52%     50.35% |       62787      0.52%     50.87% |       62175      0.51%     51.38% |       61623      0.51%     51.89% |       61019      0.50%     52.39% |       60423      0.50%     52.89% |       59806      0.49%     53.38% |       59933      0.49%     53.88% |       60408      0.50%     54.37% |       59577      0.49%     54.86% |       58552      0.48%     55.35% |       58386      0.48%     55.83% |       58326      0.48%     56.31% |       57808      0.48%     56.78% |       57135      0.47%     57.25% |       56854      0.47%     57.72% |       56548      0.47%     58.19% |       55975      0.46%     58.65% |       55258      0.46%     59.11% |       54940      0.45%     59.56% |       54189      0.45%     60.00% |       53666      0.44%     60.45% |       53063      0.44%     60.88% |       52227      0.43%     61.31% |       51701      0.43%     61.74% |       51428      0.42%     62.16% |       50445      0.42%     62.58% |       49889      0.41%     62.99% |       50046      0.41%     63.40% |       49269      0.41%     63.81% |       48657      0.40%     64.21% |       48191      0.40%     64.61% |       47987      0.40%     65.00% |       47206      0.39%     65.39% |        4707      0.04%     65.43% # delay distribution for all (Unspecified)
system.cpu3.allLatencyDist::overflows         4196281     34.57%    100.00% # delay distribution for all (Unspecified)
system.cpu3.allLatencyDist::min_value          105000                       # delay distribution for all (Unspecified)
system.cpu3.allLatencyDist::max_value        29557000                       # delay distribution for all (Unspecified)
system.cpu3.allLatencyDist::total            12138279                       # delay distribution for all (Unspecified)
system.cpu3.loadLatencyDist::bucket_size        10000                       # delay distribution for loads (Unspecified)
system.cpu3.loadLatencyDist::min_bucket             0                       # delay distribution for loads (Unspecified)
system.cpu3.loadLatencyDist::max_bucket       1600000                       # delay distribution for loads (Unspecified)
system.cpu3.loadLatencyDist::samples          9286415                       # delay distribution for loads (Unspecified)
system.cpu3.loadLatencyDist::mean        1583027.511585                       # delay distribution for loads (Unspecified)
system.cpu3.loadLatencyDist::stdev       1158244.785555                       # delay distribution for loads (Unspecified)
system.cpu3.loadLatencyDist::underflows             0      0.00%      0.00% # delay distribution for loads (Unspecified)
[...]
system.cpu3.cacheBlockRoundTrip7::overflows            0                       # Coalsr-to-coalsr time for the Nth cache block in an inst (Unspecified)
system.cpu3.cacheBlockRoundTrip7::min_value            0                       # Coalsr-to-coalsr time for the Nth cache block in an inst (Unspecified)
system.cpu3.cacheBlockRoundTrip7::max_value            0                       # Coalsr-to-coalsr time for the Nth cache block in an inst (Unspecified)
system.cpu3.cacheBlockRoundTrip7::total             0                       # Coalsr-to-coalsr time for the Nth cache block in an inst (Unspecified)
system.cpu3.cacheBlockRoundTrip8::bucket_size        10000                       # Coalsr-to-coalsr time for the Nth cache block in an inst (Unspecified)
system.cpu3.cacheBlockRoundTrip8::min_bucket            0                       # Coalsr-to-coalsr time for the Nth cache block in an inst (Unspecified)
system.cpu3.cacheBlockRoundTrip8::max_bucket      1600000                       # Coalsr-to-coalsr time for the Nth cache block in an inst (Unspecified)
system.cpu3.cacheBlockRoundTrip8::samples            0                       # Coalsr-to-coalsr time for the Nth cache block in an inst (Unspecified)
system.cpu3.cacheBlockRoundTrip8::mean            nan                       # Coalsr-to-coalsr time for the Nth cache block in an inst (Unspecified)
system.cpu3.cacheBlockRoundTrip8::stdev           nan                       # Coalsr-to-coalsr time for the Nth cache block in an inst (Unspecified)
system.cpu3.cacheBlockRoundTrip8::underflows            0                       # Coalsr-to-coalsr time for the Nth cache block in an inst (Unspecified)
system.cpu3.cacheBlockRoundTrip8         |           0                       |           0                       |           0                       |           0                       |           0                       |           0                       |           0                       |           0                       |           0                       |           0                       |           0                       |           0                       |           0                       |           0                       |           0                       |           0                       |           0                       |           0                       |           0                       |           0                       |           0                       |           0                       |           0                       |           0                       |           0                       |           0                       |           0                       |           0                       |           0                       |           0                       |           0                       |           0                       |           0                       |           0                       |           0                       |           0                       |           0                       |           0                       |           0                       |           0                       |           0                       |           0                       |           0                       |           0                       |           0                       |           0                       |           0                       |           0                       |           0                       |           0                       |           0                       |           0                       |           0                       |           0                       |           0                       |           0                       |           0                       |           0                       |           0                       |           0                       |           0                       |           0                       |           0                       |           0                       |           0                       |           0                       |           0                       |           0                       |           0                       |           0                       |           0                       |           0                       |           0                       |           0                       |           0                       |           0                       |           0                       |           0                       |           0                       |           0                       |           0                       |           0                       |           0                       |           0                       |           0                       |           0                       |           0                       |           0                       |           0                       |           0                       |           0                       |           0                       |           0                       |           0                       |           0                       |           0                       |           0                       |           0                       |           0                       |           0                       |           0                       |           0                       |           0                       |           0                       |           0                       |           0                       |           0                       |           0                       |           0                       |           0                       |           0                       |           0                       |           0                       |           0                       |           0                       |           0                       |           0                       |           0                       |           0                       |           0                       |           0                       |           0                       |           0                       |           0                       |           0                       |           0                       |           0                       |           0                       |           0                       |           0                       |           0                       |           0                       |           0                       |           0                       |           0                       |           0                       |           0                       |           0                       |           0                       |           0                       |           0                       |           0                       |           0                       |           0                       |           0                       |           0                       |           0                       |           0                       |           0                       |           0                       |           0                       |           0                       |           0                       |           0                       |           0                       |           0                       |           0                       |           0                       |           0                       |           0                       |           0                       # Coalsr-to-coalsr time for the Nth cache block in an inst (Unspecified)
system.cpu3.cacheBlockRoundTrip8::overflows            0                       # Coalsr-to-coalsr time for the Nth cache block in an inst (Unspecified)
system.cpu3.cacheBlockRoundTrip8::min_value            0                       # Coalsr-to-coalsr time for the Nth cache block in an inst (Unspecified)
system.cpu3.cacheBlockRoundTrip8::max_value            0                       # Coalsr-to-coalsr time for the Nth cache block in an inst (Unspecified)
system.cpu3.cacheBlockRoundTrip8::total             0                       # Coalsr-to-coalsr time for the Nth cache block in an inst (Unspecified)
system.cpu3.cacheBlockRoundTrip9::bucket_size        10000                       # Coalsr-to-coalsr time for the Nth cache block in an inst (Unspecified)
system.cpu3.cacheBlockRoundTrip9::min_bucket            0                       # Coalsr-to-coalsr time for the Nth cache block in an inst (Unspecified)
system.cpu3.cacheBlockRoundTrip9::max_bucket      1600000                       # Coalsr-to-coalsr time for the Nth cache block in an inst (Unspecified)
system.cpu3.cacheBlockRoundTrip9::samples            0                       # Coalsr-to-coalsr time for the Nth cache block in an inst (Unspecified)
system.cpu3.cacheBlockRoundTrip9::mean            nan                       # Coalsr-to-coalsr time for the Nth cache block in an inst (Unspecified)
system.cpu3.cacheBlockRoundTrip9::stdev           nan                       # Coalsr-to-coalsr time for the Nth cache block in an inst (Unspecified)
system.cpu3.cacheBlockRoundTrip9::underflows            0                       # Coalsr-to-coalsr time for the Nth cache block in an inst (Unspecified)
system.cpu3.cacheBlockRoundTrip9         |           0                       |           0                       |           0                       |           0                       |           0                       |           0                       |           0                       |           0                       |           0                       |           0                       |           0                       |           0                       |           0                       |           0                       |           0                       |           0                       |           0                       |           0                       |           0                       |           0                       |           0                       |           0                       |           0                       |           0                       |           0                       |           0                       |           0                       |           0                       |           0                       |           0                       |           0                       |           0                       |           0                       |           0                       |           0                       |           0                       |           0                       |           0                       |           0                       |           0                       |           0                       |           0                       |           0                       |           0                       |           0                       |           0                       |           0                       |           0                       |           0                       |           0                       |           0                       |           0                       |           0                       |           0                       |           0                       |           0                       |           0                       |           0                       |           0                       |           0                       |           0                       |           0                       |           0                       |           0                       |           0                       |           0                       |           0                       |           0                       |           0                       |           0                       |           0                       |           0                       |           0                       |           0                       |           0                       |           0                       |           0                       |           0                       |           0                       |           0                       |           0                       |           0                       |           0                       |           0                       |           0                       |           0                       |           0                       |           0                       |           0                       |           0                       |           0                       |           0                       |           0                       |           0                       |           0                       |           0                       |           0                       |           0                       |           0                       |           0                       |           0                       |           0                       |           0                       |           0                       |           0                       |           0                       |           0                       |           0                       |           0                       |           0                       |           0                       |           0                       |           0                       |           0                       |           0                       |           0                       |           0                       |           0                       |           0                       |           0                       |           0                       |           0                       |           0                       |           0                       |           0                       |           0                       |           0                       |           0                       |           0                       |           0                       |           0                       |           0                       |           0                       |           0                       |           0                       |           0                       |           0                       |           0                       |           0                       |           0                       |           0                       |           0                       |           0                       |           0                       |           0                       |           0                       |           0                       |           0                       |           0                       |           0                       |           0                       |           0                       |           0                       |           0                       |           0                       |           0                       |           0                       |           0                       |           0                       |           0                       |           0                       # Coalsr-to-coalsr time for the Nth cache block in an inst (Unspecified)
system.cpu3.cacheBlockRoundTrip9::overflows            0                       # Coalsr-to-coalsr time for the Nth cache block in an inst (Unspecified)
system.cpu3.cacheBlockRoundTrip9::min_value            0                       # Coalsr-to-coalsr time for the Nth cache block in an inst (Unspecified)
system.cpu3.cacheBlockRoundTrip9::max_value            0                       # Coalsr-to-coalsr time for the Nth cache block in an inst (Unspecified)
system.cpu3.cacheBlockRoundTrip9::total             0                       # Coalsr-to-coalsr time for the Nth cache block in an inst (Unspecified)

---------- End Simulation Statistics   ----------
