
---------- Begin Simulation Statistics ----------
simSeconds                                   2.967159                       # Number of seconds simulated (Second)
simTicks                                 2967158629500                       # Number of ticks simulated (Tick)
finalTick                                2967158629500                       # Number of ticks from beginning of simulation (restored from checkpoints and never reset) (Tick)
simFreq                                  1000000000000                       # The number of ticks per simulated second ((Tick/Second))
hostSeconds                                   6278.99                       # Real time elapsed on the host (Second)
hostTickRate                                472553619                       # The number of ticks simulated per host second (ticks/s) ((Tick/Second))
hostMemory                                   20430548                       # Number of bytes of host memory used (Byte)
simInsts                                   1595666981                       # Number of instructions simulated (Count)
simOps                                     3602298434                       # Number of ops (including micro ops) simulated (Count)
hostInstRate                                   254128                       # Simulator instruction rate (inst/s) ((Count/Second))
hostOpRate                                     573707                       # Simulator op (including micro ops) rate (op/s) ((Count/Second))
system.work_item_type0::samples                     1                       # Run time stat forwork_item_type0 (Unspecified)
system.work_item_type0::mean             349364312000                       # Run time stat forwork_item_type0 (Unspecified)
system.work_item_type0::gmean            349364311999.999756                       # Run time stat forwork_item_type0 (Unspecified)
system.work_item_type0::stdev                     nan                       # Run time stat forwork_item_type0 (Unspecified)
system.work_item_type0::0-3.43597e+10               0      0.00%      0.00% # Run time stat forwork_item_type0 (Unspecified)
system.work_item_type0::3.43597e+10-6.87195e+10            0      0.00%      0.00% # Run time stat forwork_item_type0 (Unspecified)
system.work_item_type0::6.87195e+10-1.03079e+11            0      0.00%      0.00% # Run time stat forwork_item_type0 (Unspecified)
system.work_item_type0::1.03079e+11-1.37439e+11            0      0.00%      0.00% # Run time stat forwork_item_type0 (Unspecified)
system.work_item_type0::1.37439e+11-1.71799e+11            0      0.00%      0.00% # Run time stat forwork_item_type0 (Unspecified)
system.work_item_type0::1.71799e+11-2.06158e+11            0      0.00%      0.00% # Run time stat forwork_item_type0 (Unspecified)
system.work_item_type0::2.06158e+11-2.40518e+11            0      0.00%      0.00% # Run time stat forwork_item_type0 (Unspecified)
system.work_item_type0::2.40518e+11-2.74878e+11            0      0.00%      0.00% # Run time stat forwork_item_type0 (Unspecified)
system.work_item_type0::2.74878e+11-3.09238e+11            0      0.00%      0.00% # Run time stat forwork_item_type0 (Unspecified)
system.work_item_type0::3.09238e+11-3.43597e+11            0      0.00%      0.00% # Run time stat forwork_item_type0 (Unspecified)
system.work_item_type0::3.43597e+11-3.77957e+11            1    100.00%    100.00% # Run time stat forwork_item_type0 (Unspecified)
system.work_item_type0::3.77957e+11-4.12317e+11            0      0.00%    100.00% # Run time stat forwork_item_type0 (Unspecified)
system.work_item_type0::4.12317e+11-4.46677e+11            0      0.00%    100.00% # Run time stat forwork_item_type0 (Unspecified)
system.work_item_type0::4.46677e+11-4.81036e+11            0      0.00%    100.00% # Run time stat forwork_item_type0 (Unspecified)
system.work_item_type0::4.81036e+11-5.15396e+11            0      0.00%    100.00% # Run time stat forwork_item_type0 (Unspecified)
system.work_item_type0::5.15396e+11-5.49756e+11            0      0.00%    100.00% # Run time stat forwork_item_type0 (Unspecified)
system.work_item_type0::5.49756e+11-5.84116e+11            0      0.00%    100.00% # Run time stat forwork_item_type0 (Unspecified)
system.work_item_type0::5.84116e+11-6.18475e+11            0      0.00%    100.00% # Run time stat forwork_item_type0 (Unspecified)
system.work_item_type0::6.18475e+11-6.52835e+11            0      0.00%    100.00% # Run time stat forwork_item_type0 (Unspecified)
system.work_item_type0::6.52835e+11-6.87195e+11            0      0.00%    100.00% # Run time stat forwork_item_type0 (Unspecified)
system.work_item_type0::total                       1                       # Run time stat forwork_item_type0 (Unspecified)
system.clk_domain.clock                          1000                       # Clock period in ticks (Tick)
system.cpu0.numCycles                      5934317259                       # Number of cpu cycles simulated (Cycle)
system.cpu0.cpi                              3.689531                       # CPI: cycles per instruction (core level) ((Cycle/Count))
system.cpu0.ipc                              0.271037                       # IPC: instructions per cycle (core level) ((Count/Cycle))
system.cpu0.numWorkItemsStarted                     1                       # Number of work items this cpu started (Count)
system.cpu0.numWorkItemsCompleted                   1                       # Number of work items this cpu completed (Count)
system.cpu0.clk_domain.clock                      500                       # Clock period in ticks (Tick)
system.cpu0.clk_domain.voltage_domain.voltage            1                       # Voltage in Volts (Volt)
system.cpu0.commitStats0.numInsts          1608420448                       # Number of instructions committed (thread level) (Count)
system.cpu0.commitStats0.numOps            3610440784                       # Number of ops (including micro ops) committed (thread level) (Count)
system.cpu0.commitStats0.numInstsNotNOP             0                       # Number of instructions committed excluding NOPs or prefetches (Count)
system.cpu0.commitStats0.numOpsNotNOP               0                       # Number of Ops (including micro ops) Simulated (Count)
system.cpu0.commitStats0.cpi                 3.689531                       # CPI: cycles per instruction (thread level) ((Cycle/Count))
system.cpu0.commitStats0.ipc                 0.271037                       # IPC: instructions per cycle (thread level) ((Count/Cycle))
system.cpu0.commitStats0.numMemRefs                 0                       # Number of memory references committed (Count)
system.cpu0.commitStats0.numFpInsts          46613089                       # Number of float instructions (Count)
system.cpu0.commitStats0.numIntInsts       3352692727                       # Number of integer instructions (Count)
system.cpu0.commitStats0.numLoadInsts       322316568                       # Number of load instructions (Count)
system.cpu0.commitStats0.numStoreInsts      309489784                       # Number of store instructions (Count)
system.cpu0.commitStats0.numVecInsts                0                       # Number of vector instructions (Count)
system.cpu0.commitStats0.committedInstType::No_OpClass     83877131      2.32%      2.32% # Class of committed instruction. (Count)
system.cpu0.commitStats0.committedInstType::IntAlu   2855404319     79.09%     81.41% # Class of committed instruction. (Count)
system.cpu0.commitStats0.committedInstType::IntMult     12324643      0.34%     81.75% # Class of committed instruction. (Count)
system.cpu0.commitStats0.committedInstType::IntDiv        71237      0.00%     81.75% # Class of committed instruction. (Count)
system.cpu0.commitStats0.committedInstType::FloatAdd      2302733      0.06%     81.82% # Class of committed instruction. (Count)
system.cpu0.commitStats0.committedInstType::FloatCmp           66      0.00%     81.82% # Class of committed instruction. (Count)
system.cpu0.commitStats0.committedInstType::FloatCvt         7196      0.00%     81.82% # Class of committed instruction. (Count)
system.cpu0.commitStats0.committedInstType::FloatMult           22      0.00%     81.82% # Class of committed instruction. (Count)
system.cpu0.commitStats0.committedInstType::FloatMultAcc            0      0.00%     81.82% # Class of committed instruction. (Count)
system.cpu0.commitStats0.committedInstType::FloatDiv           22      0.00%     81.82% # Class of committed instruction. (Count)
system.cpu0.commitStats0.committedInstType::FloatMisc            0      0.00%     81.82% # Class of committed instruction. (Count)
system.cpu0.commitStats0.committedInstType::FloatSqrt            0      0.00%     81.82% # Class of committed instruction. (Count)
system.cpu0.commitStats0.committedInstType::SimdAdd        19574      0.00%     81.82% # Class of committed instruction. (Count)
system.cpu0.commitStats0.committedInstType::SimdAddAcc            0      0.00%     81.82% # Class of committed instruction. (Count)
system.cpu0.commitStats0.committedInstType::SimdAlu      6020790      0.17%     81.99% # Class of committed instruction. (Count)
system.cpu0.commitStats0.committedInstType::SimdCmp       283500      0.01%     81.99% # Class of committed instruction. (Count)
system.cpu0.commitStats0.committedInstType::SimdCvt      5265286      0.15%     82.14% # Class of committed instruction. (Count)
system.cpu0.commitStats0.committedInstType::SimdMisc     11318371      0.31%     82.45% # Class of committed instruction. (Count)
system.cpu0.commitStats0.committedInstType::SimdMult            0      0.00%     82.45% # Class of committed instruction. (Count)
system.cpu0.commitStats0.committedInstType::SimdMultAcc            0      0.00%     82.45% # Class of committed instruction. (Count)
system.cpu0.commitStats0.committedInstType::SimdMatMultAcc            0      0.00%     82.45% # Class of committed instruction. (Count)
system.cpu0.commitStats0.committedInstType::SimdShift         8769      0.00%     82.45% # Class of committed instruction. (Count)
system.cpu0.commitStats0.committedInstType::SimdShiftAcc            0      0.00%     82.45% # Class of committed instruction. (Count)
system.cpu0.commitStats0.committedInstType::SimdDiv            0      0.00%     82.45% # Class of committed instruction. (Count)
system.cpu0.commitStats0.committedInstType::SimdSqrt            0      0.00%     82.45% # Class of committed instruction. (Count)
system.cpu0.commitStats0.committedInstType::SimdFloatAdd        92609      0.00%     82.46% # Class of committed instruction. (Count)
system.cpu0.commitStats0.committedInstType::SimdFloatAlu            0      0.00%     82.46% # Class of committed instruction. (Count)
system.cpu0.commitStats0.committedInstType::SimdFloatCmp            0      0.00%     82.46% # Class of committed instruction. (Count)
system.cpu0.commitStats0.committedInstType::SimdFloatCvt      1452916      0.04%     82.50% # Class of committed instruction. (Count)
system.cpu0.commitStats0.committedInstType::SimdFloatDiv            5      0.00%     82.50% # Class of committed instruction. (Count)
system.cpu0.commitStats0.committedInstType::SimdFloatMisc            0      0.00%     82.50% # Class of committed instruction. (Count)
system.cpu0.commitStats0.committedInstType::SimdFloatMult       185243      0.01%     82.50% # Class of committed instruction. (Count)
system.cpu0.commitStats0.committedInstType::SimdFloatMultAcc            0      0.00%     82.50% # Class of committed instruction. (Count)
system.cpu0.commitStats0.committedInstType::SimdFloatMatMultAcc            0      0.00%     82.50% # Class of committed instruction. (Count)
system.cpu0.commitStats0.committedInstType::SimdFloatSqrt            0      0.00%     82.50% # Class of committed instruction. (Count)
system.cpu0.commitStats0.committedInstType::SimdReduceAdd            0      0.00%     82.50% # Class of committed instruction. (Count)
system.cpu0.commitStats0.committedInstType::SimdReduceAlu            0      0.00%     82.50% # Class of committed instruction. (Count)
system.cpu0.commitStats0.committedInstType::SimdReduceCmp            0      0.00%     82.50% # Class of committed instruction. (Count)
system.cpu0.commitStats0.committedInstType::SimdFloatReduceAdd            0      0.00%     82.50% # Class of committed instruction. (Count)
system.cpu0.commitStats0.committedInstType::SimdFloatReduceCmp            0      0.00%     82.50% # Class of committed instruction. (Count)
system.cpu0.commitStats0.committedInstType::SimdAes            0      0.00%     82.50% # Class of committed instruction. (Count)
system.cpu0.commitStats0.committedInstType::SimdAesMix            0      0.00%     82.50% # Class of committed instruction. (Count)
system.cpu0.commitStats0.committedInstType::SimdSha1Hash            0      0.00%     82.50% # Class of committed instruction. (Count)
system.cpu0.commitStats0.committedInstType::SimdSha1Hash2            0      0.00%     82.50% # Class of committed instruction. (Count)
system.cpu0.commitStats0.committedInstType::SimdSha256Hash            0      0.00%     82.50% # Class of committed instruction. (Count)
system.cpu0.commitStats0.committedInstType::SimdSha256Hash2            0      0.00%     82.50% # Class of committed instruction. (Count)
system.cpu0.commitStats0.committedInstType::SimdShaSigma2            0      0.00%     82.50% # Class of committed instruction. (Count)
system.cpu0.commitStats0.committedInstType::SimdShaSigma3            0      0.00%     82.50% # Class of committed instruction. (Count)
system.cpu0.commitStats0.committedInstType::SimdPredAlu            0      0.00%     82.50% # Class of committed instruction. (Count)
system.cpu0.commitStats0.committedInstType::Matrix            0      0.00%     82.50% # Class of committed instruction. (Count)
system.cpu0.commitStats0.committedInstType::MatrixMov            0      0.00%     82.50% # Class of committed instruction. (Count)
system.cpu0.commitStats0.committedInstType::MatrixOP            0      0.00%     82.50% # Class of committed instruction. (Count)
system.cpu0.commitStats0.committedInstType::MemRead    313294879      8.68%     91.18% # Class of committed instruction. (Count)
system.cpu0.commitStats0.committedInstType::MemWrite    301748230      8.36%     99.54% # Class of committed instruction. (Count)
system.cpu0.commitStats0.committedInstType::FloatMemRead      9021689      0.25%     99.79% # Class of committed instruction. (Count)
system.cpu0.commitStats0.committedInstType::FloatMemWrite      7741554      0.21%    100.00% # Class of committed instruction. (Count)
system.cpu0.commitStats0.committedInstType::IprAccess            0      0.00%    100.00% # Class of committed instruction. (Count)
system.cpu0.commitStats0.committedInstType::InstPrefetch            0      0.00%    100.00% # Class of committed instruction. (Count)
system.cpu0.commitStats0.committedInstType::VectorUnitStrideLoad            0      0.00%    100.00% # Class of committed instruction. (Count)
system.cpu0.commitStats0.committedInstType::VectorUnitStrideStore            0      0.00%    100.00% # Class of committed instruction. (Count)
system.cpu0.commitStats0.committedInstType::VectorUnitStrideMaskLoad            0      0.00%    100.00% # Class of committed instruction. (Count)
system.cpu0.commitStats0.committedInstType::VectorUnitStrideMaskStore            0      0.00%    100.00% # Class of committed instruction. (Count)
system.cpu0.commitStats0.committedInstType::VectorStridedLoad            0      0.00%    100.00% # Class of committed instruction. (Count)
system.cpu0.commitStats0.committedInstType::VectorStridedStore            0      0.00%    100.00% # Class of committed instruction. (Count)
system.cpu0.commitStats0.committedInstType::VectorIndexedLoad            0      0.00%    100.00% # Class of committed instruction. (Count)
system.cpu0.commitStats0.committedInstType::VectorIndexedStore            0      0.00%    100.00% # Class of committed instruction. (Count)
system.cpu0.commitStats0.committedInstType::VectorUnitStrideFaultOnlyFirstLoad            0      0.00%    100.00% # Class of committed instruction. (Count)
system.cpu0.commitStats0.committedInstType::VectorWholeRegisterLoad            0      0.00%    100.00% # Class of committed instruction. (Count)
system.cpu0.commitStats0.committedInstType::VectorWholeRegisterStore            0      0.00%    100.00% # Class of committed instruction. (Count)
system.cpu0.commitStats0.committedInstType::VectorIntegerArith            0      0.00%    100.00% # Class of committed instruction. (Count)
system.cpu0.commitStats0.committedInstType::VectorFloatArith            0      0.00%    100.00% # Class of committed instruction. (Count)
system.cpu0.commitStats0.committedInstType::VectorFloatConvert            0      0.00%    100.00% # Class of committed instruction. (Count)
system.cpu0.commitStats0.committedInstType::VectorIntegerReduce            0      0.00%    100.00% # Class of committed instruction. (Count)
system.cpu0.commitStats0.committedInstType::VectorFloatReduce            0      0.00%    100.00% # Class of committed instruction. (Count)
system.cpu0.commitStats0.committedInstType::VectorMisc            0      0.00%    100.00% # Class of committed instruction. (Count)
system.cpu0.commitStats0.committedInstType::VectorIntegerExtension            0      0.00%    100.00% # Class of committed instruction. (Count)
system.cpu0.commitStats0.committedInstType::VectorConfig            0      0.00%    100.00% # Class of committed instruction. (Count)
system.cpu0.commitStats0.committedInstType::total   3610440784                       # Class of committed instruction. (Count)
system.cpu0.commitStats0.committedControl::IsControl    550387297                       # Class of control type instructions committed (Count)
system.cpu0.commitStats0.committedControl::IsDirectControl    485105092                       # Class of control type instructions committed (Count)
system.cpu0.commitStats0.committedControl::IsIndirectControl     65280858                       # Class of control type instructions committed (Count)
system.cpu0.commitStats0.committedControl::IsCondControl    414062420                       # Class of control type instructions committed (Count)
system.cpu0.commitStats0.committedControl::IsUncondControl    136323530                       # Class of control type instructions committed (Count)
system.cpu0.commitStats0.committedControl::IsCall     35714246                       # Class of control type instructions committed (Count)
system.cpu0.commitStats0.committedControl::IsReturn     35714228                       # Class of control type instructions committed (Count)
system.cpu0.exec_context.thread_0.numMatAluAccesses            0                       # Number of matrix alu accesses (Count)
system.cpu0.exec_context.thread_0.numCallsReturns     71428474                       # Number of times a function call or return occured (Count)
system.cpu0.exec_context.thread_0.numMatInsts            0                       # Number of matrix instructions (Count)
system.cpu0.exec_context.thread_0.numIdleCycles 8394043.001997                       # Number of idle cycles (Cycle)
system.cpu0.exec_context.thread_0.numBusyCycles 5925923215.998003                       # Number of busy cycles (Cycle)
system.cpu0.exec_context.thread_0.notIdleFraction     0.998586                       # Percentage of non-idle cycles (Ratio)
system.cpu0.exec_context.thread_0.idleFraction     0.001414                       # Percentage of idle cycles (Ratio)
system.cpu0.executeStats0.numInsts                  0                       # Number of executed instructions (Count)
system.cpu0.executeStats0.numNop                    0                       # Number of nop insts executed (Count)
system.cpu0.executeStats0.numBranches               0                       # Number of branches executed (Count)
system.cpu0.executeStats0.numLoadInsts              0                       # Number of load instructions executed (Count)
system.cpu0.executeStats0.numStoreInsts     631806352                       # Number of stores executed (Count)
system.cpu0.executeStats0.instRate                  0                       # Inst execution rate ((Count/Cycle))
system.cpu0.executeStats0.numFpAluAccesses     46613089                       # Number of float alu accesses (Count)
system.cpu0.executeStats0.numFpRegReads      64561764                       # Number of times the floating registers were read (Count)
system.cpu0.executeStats0.numFpRegWrites     33170866                       # Number of times the floating registers were written (Count)
system.cpu0.executeStats0.numIntAluAccesses   3352692727                       # Number of integer alu accesses (Count)
system.cpu0.executeStats0.numIntRegReads   4352203705                       # Number of times the integer registers were read (Count)
system.cpu0.executeStats0.numIntRegWrites   2342535471                       # Number of times the integer registers were written (Count)
system.cpu0.executeStats0.numMemRefs        631806352                       # Number of memory refs (Count)
system.cpu0.executeStats0.numMiscRegReads   1452332102                       # Number of times the Misc registers were read (Count)
system.cpu0.executeStats0.numMiscRegWrites         4727                       # Number of times the Misc registers were written (Count)
system.cpu0.executeStats0.numVecAluAccesses            0                       # Number of vector alu accesses (Count)
system.cpu0.executeStats0.numDiscardedOps            0                       # Number of ops (including micro ops) which were discarded before commit (Count)
system.cpu0.fetchStats0.numInsts           1608420448                       # Number of instructions fetched (thread level) (Count)
system.cpu0.fetchStats0.numOps             3610440784                       # Number of ops (including micro ops) fetched (thread level) (Count)
system.cpu0.fetchStats0.fetchRate            0.271037                       # Number of inst fetches per cycle ((Count/Cycle))
system.cpu0.fetchStats0.numBranches         550387297                       # Number of branches fetched (Count)
system.cpu0.fetchStats0.branchRate           0.092747                       # Number of branch fetches per cycle (Ratio)
system.cpu0.fetchStats0.numFetchSuspends            0                       # Number of times Execute suspended instruction fetching (Count)
system.cpu0.interrupts.clk_domain.clock          8000                       # Clock period in ticks (Tick)
system.cpu0.mmu.dtb.rdAccesses              322848919                       # TLB accesses on read requests (Count)
system.cpu0.mmu.dtb.wrAccesses              309592844                       # TLB accesses on write requests (Count)
system.cpu0.mmu.dtb.rdMisses                    28663                       # TLB misses on read requests (Count)
system.cpu0.mmu.dtb.wrMisses                    22896                       # TLB misses on write requests (Count)
system.cpu0.mmu.dtb.walker.power_state.pwrStateResidencyTicks::UNDEFINED 2967158629500                       # Cumulative time (in ticks) in various power states (Tick)
system.cpu0.mmu.itb.rdAccesses                      0                       # TLB accesses on read requests (Count)
system.cpu0.mmu.itb.wrAccesses             2117330979                       # TLB accesses on write requests (Count)
system.cpu0.mmu.itb.rdMisses                        0                       # TLB misses on read requests (Count)
system.cpu0.mmu.itb.wrMisses                     4537                       # TLB misses on write requests (Count)
system.cpu0.mmu.itb.walker.power_state.pwrStateResidencyTicks::UNDEFINED 2967158629500                       # Cumulative time (in ticks) in various power states (Tick)
system.cpu0.power_state.numTransitions              6                       # Number of power state transitions (Count)
system.cpu0.power_state.ticksClkGated::samples            3                       # Distribution of time spent in the clock gated state (Tick)
system.cpu0.power_state.ticksClkGated::mean 1399007166.666667                       # Distribution of time spent in the clock gated state (Tick)
system.cpu0.power_state.ticksClkGated::stdev 2326672016.443676                       # Distribution of time spent in the clock gated state (Tick)
system.cpu0.power_state.ticksClkGated::1000-5e+10            3    100.00%    100.00% # Distribution of time spent in the clock gated state (Tick)
system.cpu0.power_state.ticksClkGated::min_value     36588000                       # Distribution of time spent in the clock gated state (Tick)
system.cpu0.power_state.ticksClkGated::max_value   4085525500                       # Distribution of time spent in the clock gated state (Tick)
system.cpu0.power_state.ticksClkGated::total            3                       # Distribution of time spent in the clock gated state (Tick)
system.cpu0.power_state.pwrStateResidencyTicks::ON 2962961608000                       # Cumulative time (in ticks) in various power states (Tick)
system.cpu0.power_state.pwrStateResidencyTicks::CLK_GATED   4197021500                       # Cumulative time (in ticks) in various power states (Tick)
system.cpu0.thread_0.numInsts                       0                       # Number of Instructions committed (Count)
system.cpu0.thread_0.numOps                         0                       # Number of Ops committed (Count)
system.cpu0.thread_0.numMemRefs                     0                       # Number of Memory References (Count)
system.cpu0.workload.numSyscalls             17103719                       # Number of system calls (Count)
system.cpu0.workload.drivers0.device.dispatcher.numKernelLaunched           17                       # number of kernel launched (Unspecified)
system.cpu0.workload.drivers0.device.dispatcher.cyclesWaitingForDispatch        78506                       # number of cycles with outstanding wavefronts that are waiting to be dispatched (Unspecified)
system.cpu0.workload.drivers0.device.hsapp.power_state.pwrStateResidencyTicks::UNDEFINED 2967158629500                       # Cumulative time (in ticks) in various power states (Tick)
system.cpu0.workload.drivers0.device.hsapp.walker.power_state.pwrStateResidencyTicks::UNDEFINED 2967158629500                       # Cumulative time (in ticks) in various power states (Tick)
system.cpu0.workload.drivers0.device.power_state.pwrStateResidencyTicks::UNDEFINED 2967158629500                       # Cumulative time (in ticks) in various power states (Tick)
system.cpu0.workload.drivers0.device.walker.power_state.pwrStateResidencyTicks::UNDEFINED 2967158629500                       # Cumulative time (in ticks) in various power states (Tick)
system.cpu1.numCycles                      3244961702                       # Number of cpu cycles simulated (Cycle)
system.cpu1.cpi                           9393.896072                       # CPI: cycles per instruction (core level) ((Cycle/Count))
system.cpu1.ipc                              0.000106                       # IPC: instructions per cycle (core level) ((Count/Cycle))
system.cpu1.numWorkItemsStarted                     0                       # Number of work items this cpu started (Count)
system.cpu1.numWorkItemsCompleted                   0                       # Number of work items this cpu completed (Count)
system.cpu1.clk_domain.clock                      500                       # Clock period in ticks (Tick)
system.cpu1.clk_domain.voltage_domain.voltage            1                       # Voltage in Volts (Volt)
system.cpu1.commitStats0.numInsts              345433                       # Number of instructions committed (thread level) (Count)
system.cpu1.commitStats0.numOps                643321                       # Number of ops (including micro ops) committed (thread level) (Count)
system.cpu1.commitStats0.numInstsNotNOP             0                       # Number of instructions committed excluding NOPs or prefetches (Count)
system.cpu1.commitStats0.numOpsNotNOP               0                       # Number of Ops (including micro ops) Simulated (Count)
system.cpu1.commitStats0.cpi              9393.896072                       # CPI: cycles per instruction (thread level) ((Cycle/Count))
system.cpu1.commitStats0.ipc                 0.000106                       # IPC: instructions per cycle (thread level) ((Count/Cycle))
system.cpu1.commitStats0.numMemRefs                 0                       # Number of memory references committed (Count)
system.cpu1.commitStats0.numFpInsts             20246                       # Number of float instructions (Count)
system.cpu1.commitStats0.numIntInsts           619917                       # Number of integer instructions (Count)
system.cpu1.commitStats0.numLoadInsts          143870                       # Number of load instructions (Count)
system.cpu1.commitStats0.numStoreInsts          14736                       # Number of store instructions (Count)
system.cpu1.commitStats0.numVecInsts                0                       # Number of vector instructions (Count)
system.cpu1.commitStats0.committedInstType::No_OpClass        10527      1.64%      1.64% # Class of committed instruction. (Count)
system.cpu1.commitStats0.committedInstType::IntAlu       460066     71.51%     73.15% # Class of committed instruction. (Count)
system.cpu1.commitStats0.committedInstType::IntMult            3      0.00%     73.15% # Class of committed instruction. (Count)
system.cpu1.commitStats0.committedInstType::IntDiv           75      0.01%     73.16% # Class of committed instruction. (Count)
system.cpu1.commitStats0.committedInstType::FloatAdd         2864      0.45%     73.61% # Class of committed instruction. (Count)
system.cpu1.commitStats0.committedInstType::FloatCmp            0      0.00%     73.61% # Class of committed instruction. (Count)
system.cpu1.commitStats0.committedInstType::FloatCvt           48      0.01%     73.62% # Class of committed instruction. (Count)
system.cpu1.commitStats0.committedInstType::FloatMult            0      0.00%     73.62% # Class of committed instruction. (Count)
system.cpu1.commitStats0.committedInstType::FloatMultAcc            0      0.00%     73.62% # Class of committed instruction. (Count)
system.cpu1.commitStats0.committedInstType::FloatDiv            0      0.00%     73.62% # Class of committed instruction. (Count)
system.cpu1.commitStats0.committedInstType::FloatMisc            0      0.00%     73.62% # Class of committed instruction. (Count)
system.cpu1.commitStats0.committedInstType::FloatSqrt            0      0.00%     73.62% # Class of committed instruction. (Count)
system.cpu1.commitStats0.committedInstType::SimdAdd           20      0.00%     73.62% # Class of committed instruction. (Count)
system.cpu1.commitStats0.committedInstType::SimdAddAcc            0      0.00%     73.62% # Class of committed instruction. (Count)
system.cpu1.commitStats0.committedInstType::SimdAlu         2756      0.43%     74.05% # Class of committed instruction. (Count)
system.cpu1.commitStats0.committedInstType::SimdCmp            0      0.00%     74.05% # Class of committed instruction. (Count)
system.cpu1.commitStats0.committedInstType::SimdCvt           40      0.01%     74.05% # Class of committed instruction. (Count)
system.cpu1.commitStats0.committedInstType::SimdMisc         1543      0.24%     74.29% # Class of committed instruction. (Count)
system.cpu1.commitStats0.committedInstType::SimdMult            0      0.00%     74.29% # Class of committed instruction. (Count)
system.cpu1.commitStats0.committedInstType::SimdMultAcc            0      0.00%     74.29% # Class of committed instruction. (Count)
system.cpu1.commitStats0.committedInstType::SimdMatMultAcc            0      0.00%     74.29% # Class of committed instruction. (Count)
system.cpu1.commitStats0.committedInstType::SimdShift           21      0.00%     74.30% # Class of committed instruction. (Count)
system.cpu1.commitStats0.committedInstType::SimdShiftAcc            0      0.00%     74.30% # Class of committed instruction. (Count)
system.cpu1.commitStats0.committedInstType::SimdDiv            0      0.00%     74.30% # Class of committed instruction. (Count)
system.cpu1.commitStats0.committedInstType::SimdSqrt            0      0.00%     74.30% # Class of committed instruction. (Count)
system.cpu1.commitStats0.committedInstType::SimdFloatAdd         1350      0.21%     74.51% # Class of committed instruction. (Count)
system.cpu1.commitStats0.committedInstType::SimdFloatAlu            0      0.00%     74.51% # Class of committed instruction. (Count)
system.cpu1.commitStats0.committedInstType::SimdFloatCmp            0      0.00%     74.51% # Class of committed instruction. (Count)
system.cpu1.commitStats0.committedInstType::SimdFloatCvt         4044      0.63%     75.13% # Class of committed instruction. (Count)
system.cpu1.commitStats0.committedInstType::SimdFloatDiv            7      0.00%     75.14% # Class of committed instruction. (Count)
system.cpu1.commitStats0.committedInstType::SimdFloatMisc            0      0.00%     75.14% # Class of committed instruction. (Count)
system.cpu1.commitStats0.committedInstType::SimdFloatMult         1351      0.21%     75.35% # Class of committed instruction. (Count)
system.cpu1.commitStats0.committedInstType::SimdFloatMultAcc            0      0.00%     75.35% # Class of committed instruction. (Count)
system.cpu1.commitStats0.committedInstType::SimdFloatMatMultAcc            0      0.00%     75.35% # Class of committed instruction. (Count)
system.cpu1.commitStats0.committedInstType::SimdFloatSqrt            0      0.00%     75.35% # Class of committed instruction. (Count)
system.cpu1.commitStats0.committedInstType::SimdReduceAdd            0      0.00%     75.35% # Class of committed instruction. (Count)
system.cpu1.commitStats0.committedInstType::SimdReduceAlu            0      0.00%     75.35% # Class of committed instruction. (Count)
system.cpu1.commitStats0.committedInstType::SimdReduceCmp            0      0.00%     75.35% # Class of committed instruction. (Count)
system.cpu1.commitStats0.committedInstType::SimdFloatReduceAdd            0      0.00%     75.35% # Class of committed instruction. (Count)
system.cpu1.commitStats0.committedInstType::SimdFloatReduceCmp            0      0.00%     75.35% # Class of committed instruction. (Count)
system.cpu1.commitStats0.committedInstType::SimdAes            0      0.00%     75.35% # Class of committed instruction. (Count)
system.cpu1.commitStats0.committedInstType::SimdAesMix            0      0.00%     75.35% # Class of committed instruction. (Count)
system.cpu1.commitStats0.committedInstType::SimdSha1Hash            0      0.00%     75.35% # Class of committed instruction. (Count)
system.cpu1.commitStats0.committedInstType::SimdSha1Hash2            0      0.00%     75.35% # Class of committed instruction. (Count)
system.cpu1.commitStats0.committedInstType::SimdSha256Hash            0      0.00%     75.35% # Class of committed instruction. (Count)
system.cpu1.commitStats0.committedInstType::SimdSha256Hash2            0      0.00%     75.35% # Class of committed instruction. (Count)
system.cpu1.commitStats0.committedInstType::SimdShaSigma2            0      0.00%     75.35% # Class of committed instruction. (Count)
system.cpu1.commitStats0.committedInstType::SimdShaSigma3            0      0.00%     75.35% # Class of committed instruction. (Count)
system.cpu1.commitStats0.committedInstType::SimdPredAlu            0      0.00%     75.35% # Class of committed instruction. (Count)
system.cpu1.commitStats0.committedInstType::Matrix            0      0.00%     75.35% # Class of committed instruction. (Count)
system.cpu1.commitStats0.committedInstType::MatrixMov            0      0.00%     75.35% # Class of committed instruction. (Count)
system.cpu1.commitStats0.committedInstType::MatrixOP            0      0.00%     75.35% # Class of committed instruction. (Count)
system.cpu1.commitStats0.committedInstType::MemRead       138319     21.50%     96.85% # Class of committed instruction. (Count)
system.cpu1.commitStats0.committedInstType::MemWrite        14239      2.21%     99.06% # Class of committed instruction. (Count)
system.cpu1.commitStats0.committedInstType::FloatMemRead         5551      0.86%     99.92% # Class of committed instruction. (Count)
system.cpu1.commitStats0.committedInstType::FloatMemWrite          497      0.08%    100.00% # Class of committed instruction. (Count)
system.cpu1.commitStats0.committedInstType::IprAccess            0      0.00%    100.00% # Class of committed instruction. (Count)
system.cpu1.commitStats0.committedInstType::InstPrefetch            0      0.00%    100.00% # Class of committed instruction. (Count)
system.cpu1.commitStats0.committedInstType::VectorUnitStrideLoad            0      0.00%    100.00% # Class of committed instruction. (Count)
system.cpu1.commitStats0.committedInstType::VectorUnitStrideStore            0      0.00%    100.00% # Class of committed instruction. (Count)
system.cpu1.commitStats0.committedInstType::VectorUnitStrideMaskLoad            0      0.00%    100.00% # Class of committed instruction. (Count)
system.cpu1.commitStats0.committedInstType::VectorUnitStrideMaskStore            0      0.00%    100.00% # Class of committed instruction. (Count)
system.cpu1.commitStats0.committedInstType::VectorStridedLoad            0      0.00%    100.00% # Class of committed instruction. (Count)
system.cpu1.commitStats0.committedInstType::VectorStridedStore            0      0.00%    100.00% # Class of committed instruction. (Count)
system.cpu1.commitStats0.committedInstType::VectorIndexedLoad            0      0.00%    100.00% # Class of committed instruction. (Count)
system.cpu1.commitStats0.committedInstType::VectorIndexedStore            0      0.00%    100.00% # Class of committed instruction. (Count)
system.cpu1.commitStats0.committedInstType::VectorUnitStrideFaultOnlyFirstLoad            0      0.00%    100.00% # Class of committed instruction. (Count)
system.cpu1.commitStats0.committedInstType::VectorWholeRegisterLoad            0      0.00%    100.00% # Class of committed instruction. (Count)
system.cpu1.commitStats0.committedInstType::VectorWholeRegisterStore            0      0.00%    100.00% # Class of committed instruction. (Count)
system.cpu1.commitStats0.committedInstType::VectorIntegerArith            0      0.00%    100.00% # Class of committed instruction. (Count)
system.cpu1.commitStats0.committedInstType::VectorFloatArith            0      0.00%    100.00% # Class of committed instruction. (Count)
system.cpu1.commitStats0.committedInstType::VectorFloatConvert            0      0.00%    100.00% # Class of committed instruction. (Count)
system.cpu1.commitStats0.committedInstType::VectorIntegerReduce            0      0.00%    100.00% # Class of committed instruction. (Count)
system.cpu1.commitStats0.committedInstType::VectorFloatReduce            0      0.00%    100.00% # Class of committed instruction. (Count)
system.cpu1.commitStats0.committedInstType::VectorMisc            0      0.00%    100.00% # Class of committed instruction. (Count)
system.cpu1.commitStats0.committedInstType::VectorIntegerExtension            0      0.00%    100.00% # Class of committed instruction. (Count)
system.cpu1.commitStats0.committedInstType::VectorConfig            0      0.00%    100.00% # Class of committed instruction. (Count)
system.cpu1.commitStats0.committedInstType::total       643321                       # Class of committed instruction. (Count)
system.cpu1.commitStats0.committedControl::IsControl       110126                       # Class of control type instructions committed (Count)
system.cpu1.commitStats0.committedControl::IsDirectControl        92072                       # Class of control type instructions committed (Count)
system.cpu1.commitStats0.committedControl::IsIndirectControl        18051                       # Class of control type instructions committed (Count)
system.cpu1.commitStats0.committedControl::IsCondControl        89336                       # Class of control type instructions committed (Count)
system.cpu1.commitStats0.committedControl::IsUncondControl        20787                       # Class of control type instructions committed (Count)
system.cpu1.commitStats0.committedControl::IsCall         9058                       # Class of control type instructions committed (Count)
system.cpu1.commitStats0.committedControl::IsReturn         9050                       # Class of control type instructions committed (Count)
system.cpu1.exec_context.thread_0.numMatAluAccesses            0                       # Number of matrix alu accesses (Count)
system.cpu1.exec_context.thread_0.numCallsReturns        18108                       # Number of times a function call or return occured (Count)
system.cpu1.exec_context.thread_0.numMatInsts            0                       # Number of matrix instructions (Count)
system.cpu1.exec_context.thread_0.numIdleCycles 3244229121.887344                       # Number of idle cycles (Cycle)
system.cpu1.exec_context.thread_0.numBusyCycles 732580.112656                       # Number of busy cycles (Cycle)
system.cpu1.exec_context.thread_0.notIdleFraction     0.000226                       # Percentage of non-idle cycles (Ratio)
system.cpu1.exec_context.thread_0.idleFraction     0.999774                       # Percentage of idle cycles (Ratio)
system.cpu1.executeStats0.numInsts                  0                       # Number of executed instructions (Count)
system.cpu1.executeStats0.numNop                    0                       # Number of nop insts executed (Count)
system.cpu1.executeStats0.numBranches               0                       # Number of branches executed (Count)
system.cpu1.executeStats0.numLoadInsts              0                       # Number of load instructions executed (Count)
system.cpu1.executeStats0.numStoreInsts        158606                       # Number of stores executed (Count)
system.cpu1.executeStats0.instRate                  0                       # Inst execution rate ((Count/Cycle))
system.cpu1.executeStats0.numFpAluAccesses        20246                       # Number of float alu accesses (Count)
system.cpu1.executeStats0.numFpRegReads         24366                       # Number of times the floating registers were read (Count)
system.cpu1.executeStats0.numFpRegWrites        16992                       # Number of times the floating registers were written (Count)
system.cpu1.executeStats0.numIntAluAccesses       619917                       # Number of integer alu accesses (Count)
system.cpu1.executeStats0.numIntRegReads       675366                       # Number of times the integer registers were read (Count)
system.cpu1.executeStats0.numIntRegWrites       403033                       # Number of times the integer registers were written (Count)
system.cpu1.executeStats0.numMemRefs           158606                       # Number of memory refs (Count)
system.cpu1.executeStats0.numMiscRegReads       373911                       # Number of times the Misc registers were read (Count)
system.cpu1.executeStats0.numMiscRegWrites           27                       # Number of times the Misc registers were written (Count)
system.cpu1.executeStats0.numVecAluAccesses            0                       # Number of vector alu accesses (Count)
system.cpu1.executeStats0.numDiscardedOps            0                       # Number of ops (including micro ops) which were discarded before commit (Count)
system.cpu1.fetchStats0.numInsts               345433                       # Number of instructions fetched (thread level) (Count)
system.cpu1.fetchStats0.numOps                 643321                       # Number of ops (including micro ops) fetched (thread level) (Count)
system.cpu1.fetchStats0.fetchRate            0.000106                       # Number of inst fetches per cycle ((Count/Cycle))
system.cpu1.fetchStats0.numBranches            110126                       # Number of branches fetched (Count)
system.cpu1.fetchStats0.branchRate           0.000034                       # Number of branch fetches per cycle (Ratio)
system.cpu1.fetchStats0.numFetchSuspends            0                       # Number of times Execute suspended instruction fetching (Count)
system.cpu1.interrupts.clk_domain.clock          8000                       # Clock period in ticks (Tick)
system.cpu1.mmu.dtb.rdAccesses                 143870                       # TLB accesses on read requests (Count)
system.cpu1.mmu.dtb.wrAccesses                  14736                       # TLB accesses on write requests (Count)
system.cpu1.mmu.dtb.rdMisses                      153                       # TLB misses on read requests (Count)
system.cpu1.mmu.dtb.wrMisses                        4                       # TLB misses on write requests (Count)
system.cpu1.mmu.dtb.walker.power_state.pwrStateResidencyTicks::UNDEFINED 2967158629500                       # Cumulative time (in ticks) in various power states (Tick)
system.cpu1.mmu.itb.rdAccesses                      0                       # TLB accesses on read requests (Count)
system.cpu1.mmu.itb.wrAccesses                 456294                       # TLB accesses on write requests (Count)
system.cpu1.mmu.itb.rdMisses                        0                       # TLB misses on read requests (Count)
system.cpu1.mmu.itb.wrMisses                      129                       # TLB misses on write requests (Count)
system.cpu1.mmu.itb.walker.power_state.pwrStateResidencyTicks::UNDEFINED 2967158629500                       # Cumulative time (in ticks) in various power states (Tick)
system.cpu1.power_state.numTransitions              3                       # Number of power state transitions (Count)
system.cpu1.power_state.ticksClkGated::samples            2                       # Distribution of time spent in the clock gated state (Tick)
system.cpu1.power_state.ticksClkGated::mean 673722503500                       # Distribution of time spent in the clock gated state (Tick)
system.cpu1.power_state.ticksClkGated::stdev 948874049650.769653                       # Distribution of time spent in the clock gated state (Tick)
system.cpu1.power_state.ticksClkGated::1000-5e+10            1     50.00%     50.00% # Distribution of time spent in the clock gated state (Tick)
system.cpu1.power_state.ticksClkGated::overflows            1     50.00%    100.00% # Distribution of time spent in the clock gated state (Tick)
system.cpu1.power_state.ticksClkGated::min_value   2767228500                       # Distribution of time spent in the clock gated state (Tick)
system.cpu1.power_state.ticksClkGated::max_value 1344677778500                       # Distribution of time spent in the clock gated state (Tick)
system.cpu1.power_state.ticksClkGated::total            2                       # Distribution of time spent in the clock gated state (Tick)
system.cpu1.power_state.pwrStateResidencyTicks::ON 1619713622500                       # Cumulative time (in ticks) in various power states (Tick)
system.cpu1.power_state.pwrStateResidencyTicks::CLK_GATED 1347445007000                       # Cumulative time (in ticks) in various power states (Tick)
system.cpu1.thread_0.numInsts                       0                       # Number of Instructions committed (Count)
system.cpu1.thread_0.numOps                         0                       # Number of Ops committed (Count)
system.cpu1.thread_0.numMemRefs                     0                       # Number of Memory References (Count)
system.cpu2.numCycles                      3940665693                       # Number of cpu cycles simulated (Cycle)
system.cpu2.cpi                            980.464849                       # CPI: cycles per instruction (core level) ((Cycle/Count))
system.cpu2.ipc                              0.001020                       # IPC: instructions per cycle (core level) ((Count/Cycle))
system.cpu2.numWorkItemsStarted                     0                       # Number of work items this cpu started (Count)
system.cpu2.numWorkItemsCompleted                   0                       # Number of work items this cpu completed (Count)
system.cpu2.clk_domain.clock                      500                       # Clock period in ticks (Tick)
system.cpu2.clk_domain.voltage_domain.voltage            1                       # Voltage in Volts (Volt)
system.cpu2.commitStats0.numInsts             4019181                       # Number of instructions committed (thread level) (Count)
system.cpu2.commitStats0.numOps               8976445                       # Number of ops (including micro ops) committed (thread level) (Count)
system.cpu2.commitStats0.numInstsNotNOP             0                       # Number of instructions committed excluding NOPs or prefetches (Count)
system.cpu2.commitStats0.numOpsNotNOP               0                       # Number of Ops (including micro ops) Simulated (Count)
system.cpu2.commitStats0.cpi               980.464849                       # CPI: cycles per instruction (thread level) ((Cycle/Count))
system.cpu2.commitStats0.ipc                 0.001020                       # IPC: instructions per cycle (thread level) ((Count/Cycle))
system.cpu2.commitStats0.numMemRefs                 0                       # Number of memory references committed (Count)
system.cpu2.commitStats0.numFpInsts           2726405                       # Number of float instructions (Count)
system.cpu2.commitStats0.numIntInsts          8164094                       # Number of integer instructions (Count)
system.cpu2.commitStats0.numLoadInsts         2001966                       # Number of load instructions (Count)
system.cpu2.commitStats0.numStoreInsts        2175349                       # Number of store instructions (Count)
system.cpu2.commitStats0.numVecInsts                0                       # Number of vector instructions (Count)
system.cpu2.commitStats0.committedInstType::No_OpClass       679931      7.57%      7.57% # Class of committed instruction. (Count)
system.cpu2.commitStats0.committedInstType::IntAlu      4011974     44.69%     52.27% # Class of committed instruction. (Count)
system.cpu2.commitStats0.committedInstType::IntMult         1422      0.02%     52.28% # Class of committed instruction. (Count)
system.cpu2.commitStats0.committedInstType::IntDiv         2201      0.02%     52.31% # Class of committed instruction. (Count)
system.cpu2.commitStats0.committedInstType::FloatAdd        17370      0.19%     52.50% # Class of committed instruction. (Count)
system.cpu2.commitStats0.committedInstType::FloatCmp            3      0.00%     52.50% # Class of committed instruction. (Count)
system.cpu2.commitStats0.committedInstType::FloatCvt          530      0.01%     52.51% # Class of committed instruction. (Count)
system.cpu2.commitStats0.committedInstType::FloatMult            1      0.00%     52.51% # Class of committed instruction. (Count)
system.cpu2.commitStats0.committedInstType::FloatMultAcc            0      0.00%     52.51% # Class of committed instruction. (Count)
system.cpu2.commitStats0.committedInstType::FloatDiv            1      0.00%     52.51% # Class of committed instruction. (Count)
system.cpu2.commitStats0.committedInstType::FloatMisc            0      0.00%     52.51% # Class of committed instruction. (Count)
system.cpu2.commitStats0.committedInstType::FloatSqrt            0      0.00%     52.51% # Class of committed instruction. (Count)
system.cpu2.commitStats0.committedInstType::SimdAdd          410      0.00%     52.51% # Class of committed instruction. (Count)
system.cpu2.commitStats0.committedInstType::SimdAddAcc            0      0.00%     52.51% # Class of committed instruction. (Count)
system.cpu2.commitStats0.committedInstType::SimdAlu        26572      0.30%     52.81% # Class of committed instruction. (Count)
system.cpu2.commitStats0.committedInstType::SimdCmp           12      0.00%     52.81% # Class of committed instruction. (Count)
system.cpu2.commitStats0.committedInstType::SimdCvt          558      0.01%     52.82% # Class of committed instruction. (Count)
system.cpu2.commitStats0.committedInstType::SimdMisc        10818      0.12%     52.94% # Class of committed instruction. (Count)
system.cpu2.commitStats0.committedInstType::SimdMult            0      0.00%     52.94% # Class of committed instruction. (Count)
system.cpu2.commitStats0.committedInstType::SimdMultAcc            0      0.00%     52.94% # Class of committed instruction. (Count)
system.cpu2.commitStats0.committedInstType::SimdMatMultAcc            0      0.00%     52.94% # Class of committed instruction. (Count)
system.cpu2.commitStats0.committedInstType::SimdShift          283      0.00%     52.94% # Class of committed instruction. (Count)
system.cpu2.commitStats0.committedInstType::SimdShiftAcc            0      0.00%     52.94% # Class of committed instruction. (Count)
system.cpu2.commitStats0.committedInstType::SimdDiv            0      0.00%     52.94% # Class of committed instruction. (Count)
system.cpu2.commitStats0.committedInstType::SimdSqrt            0      0.00%     52.94% # Class of committed instruction. (Count)
system.cpu2.commitStats0.committedInstType::SimdFloatAdd         9711      0.11%     53.05% # Class of committed instruction. (Count)
system.cpu2.commitStats0.committedInstType::SimdFloatAlu            0      0.00%     53.05% # Class of committed instruction. (Count)
system.cpu2.commitStats0.committedInstType::SimdFloatCmp            0      0.00%     53.05% # Class of committed instruction. (Count)
system.cpu2.commitStats0.committedInstType::SimdFloatCvt        27611      0.31%     53.36% # Class of committed instruction. (Count)
system.cpu2.commitStats0.committedInstType::SimdFloatDiv            7      0.00%     53.36% # Class of committed instruction. (Count)
system.cpu2.commitStats0.committedInstType::SimdFloatMisc            0      0.00%     53.36% # Class of committed instruction. (Count)
system.cpu2.commitStats0.committedInstType::SimdFloatMult         9715      0.11%     53.46% # Class of committed instruction. (Count)
system.cpu2.commitStats0.committedInstType::SimdFloatMultAcc            0      0.00%     53.46% # Class of committed instruction. (Count)
system.cpu2.commitStats0.committedInstType::SimdFloatMatMultAcc            0      0.00%     53.46% # Class of committed instruction. (Count)
system.cpu2.commitStats0.committedInstType::SimdFloatSqrt            0      0.00%     53.46% # Class of committed instruction. (Count)
system.cpu2.commitStats0.committedInstType::SimdReduceAdd            0      0.00%     53.46% # Class of committed instruction. (Count)
system.cpu2.commitStats0.committedInstType::SimdReduceAlu            0      0.00%     53.46% # Class of committed instruction. (Count)
system.cpu2.commitStats0.committedInstType::SimdReduceCmp            0      0.00%     53.46% # Class of committed instruction. (Count)
system.cpu2.commitStats0.committedInstType::SimdFloatReduceAdd            0      0.00%     53.46% # Class of committed instruction. (Count)
system.cpu2.commitStats0.committedInstType::SimdFloatReduceCmp            0      0.00%     53.46% # Class of committed instruction. (Count)
system.cpu2.commitStats0.committedInstType::SimdAes            0      0.00%     53.46% # Class of committed instruction. (Count)
system.cpu2.commitStats0.committedInstType::SimdAesMix            0      0.00%     53.46% # Class of committed instruction. (Count)
system.cpu2.commitStats0.committedInstType::SimdSha1Hash            0      0.00%     53.46% # Class of committed instruction. (Count)
system.cpu2.commitStats0.committedInstType::SimdSha1Hash2            0      0.00%     53.46% # Class of committed instruction. (Count)
system.cpu2.commitStats0.committedInstType::SimdSha256Hash            0      0.00%     53.46% # Class of committed instruction. (Count)
system.cpu2.commitStats0.committedInstType::SimdSha256Hash2            0      0.00%     53.46% # Class of committed instruction. (Count)
system.cpu2.commitStats0.committedInstType::SimdShaSigma2            0      0.00%     53.46% # Class of committed instruction. (Count)
system.cpu2.commitStats0.committedInstType::SimdShaSigma3            0      0.00%     53.46% # Class of committed instruction. (Count)
system.cpu2.commitStats0.committedInstType::SimdPredAlu            0      0.00%     53.46% # Class of committed instruction. (Count)
system.cpu2.commitStats0.committedInstType::Matrix            0      0.00%     53.46% # Class of committed instruction. (Count)
system.cpu2.commitStats0.committedInstType::MatrixMov            0      0.00%     53.46% # Class of committed instruction. (Count)
system.cpu2.commitStats0.committedInstType::MatrixOP            0      0.00%     53.46% # Class of committed instruction. (Count)
system.cpu2.commitStats0.committedInstType::MemRead       681090      7.59%     61.05% # Class of committed instruction. (Count)
system.cpu2.commitStats0.committedInstType::MemWrite       874097      9.74%     70.79% # Class of committed instruction. (Count)
system.cpu2.commitStats0.committedInstType::FloatMemRead      1320876     14.71%     85.50% # Class of committed instruction. (Count)
system.cpu2.commitStats0.committedInstType::FloatMemWrite      1301252     14.50%    100.00% # Class of committed instruction. (Count)
system.cpu2.commitStats0.committedInstType::IprAccess            0      0.00%    100.00% # Class of committed instruction. (Count)
system.cpu2.commitStats0.committedInstType::InstPrefetch            0      0.00%    100.00% # Class of committed instruction. (Count)
system.cpu2.commitStats0.committedInstType::VectorUnitStrideLoad            0      0.00%    100.00% # Class of committed instruction. (Count)
system.cpu2.commitStats0.committedInstType::VectorUnitStrideStore            0      0.00%    100.00% # Class of committed instruction. (Count)
system.cpu2.commitStats0.committedInstType::VectorUnitStrideMaskLoad            0      0.00%    100.00% # Class of committed instruction. (Count)
system.cpu2.commitStats0.committedInstType::VectorUnitStrideMaskStore            0      0.00%    100.00% # Class of committed instruction. (Count)
system.cpu2.commitStats0.committedInstType::VectorStridedLoad            0      0.00%    100.00% # Class of committed instruction. (Count)
system.cpu2.commitStats0.committedInstType::VectorStridedStore            0      0.00%    100.00% # Class of committed instruction. (Count)
system.cpu2.commitStats0.committedInstType::VectorIndexedLoad            0      0.00%    100.00% # Class of committed instruction. (Count)
system.cpu2.commitStats0.committedInstType::VectorIndexedStore            0      0.00%    100.00% # Class of committed instruction. (Count)
system.cpu2.commitStats0.committedInstType::VectorUnitStrideFaultOnlyFirstLoad            0      0.00%    100.00% # Class of committed instruction. (Count)
system.cpu2.commitStats0.committedInstType::VectorWholeRegisterLoad            0      0.00%    100.00% # Class of committed instruction. (Count)
system.cpu2.commitStats0.committedInstType::VectorWholeRegisterStore            0      0.00%    100.00% # Class of committed instruction. (Count)
system.cpu2.commitStats0.committedInstType::VectorIntegerArith            0      0.00%    100.00% # Class of committed instruction. (Count)
system.cpu2.commitStats0.committedInstType::VectorFloatArith            0      0.00%    100.00% # Class of committed instruction. (Count)
system.cpu2.commitStats0.committedInstType::VectorFloatConvert            0      0.00%    100.00% # Class of committed instruction. (Count)
system.cpu2.commitStats0.committedInstType::VectorIntegerReduce            0      0.00%    100.00% # Class of committed instruction. (Count)
system.cpu2.commitStats0.committedInstType::VectorFloatReduce            0      0.00%    100.00% # Class of committed instruction. (Count)
system.cpu2.commitStats0.committedInstType::VectorMisc            0      0.00%    100.00% # Class of committed instruction. (Count)
system.cpu2.commitStats0.committedInstType::VectorIntegerExtension            0      0.00%    100.00% # Class of committed instruction. (Count)
system.cpu2.commitStats0.committedInstType::VectorConfig            0      0.00%    100.00% # Class of committed instruction. (Count)
system.cpu2.commitStats0.committedInstType::total      8976445                       # Class of committed instruction. (Count)
system.cpu2.commitStats0.committedControl::IsControl       502014                       # Class of control type instructions committed (Count)
system.cpu2.commitStats0.committedControl::IsDirectControl       458051                       # Class of control type instructions committed (Count)
system.cpu2.commitStats0.committedControl::IsIndirectControl        43920                       # Class of control type instructions committed (Count)
system.cpu2.commitStats0.committedControl::IsCondControl       404984                       # Class of control type instructions committed (Count)
system.cpu2.commitStats0.committedControl::IsUncondControl        96987                       # Class of control type instructions committed (Count)
system.cpu2.commitStats0.committedControl::IsCall        28465                       # Class of control type instructions committed (Count)
system.cpu2.commitStats0.committedControl::IsReturn        28455                       # Class of control type instructions committed (Count)
system.cpu2.exec_context.thread_0.numMatAluAccesses            0                       # Number of matrix alu accesses (Count)
system.cpu2.exec_context.thread_0.numCallsReturns        56920                       # Number of times a function call or return occured (Count)
system.cpu2.exec_context.thread_0.numMatInsts            0                       # Number of matrix instructions (Count)
system.cpu2.exec_context.thread_0.numIdleCycles 3850744374.021250                       # Number of idle cycles (Cycle)
system.cpu2.exec_context.thread_0.numBusyCycles 89921318.978750                       # Number of busy cycles (Cycle)
system.cpu2.exec_context.thread_0.notIdleFraction     0.022819                       # Percentage of non-idle cycles (Ratio)
system.cpu2.exec_context.thread_0.idleFraction     0.977181                       # Percentage of idle cycles (Ratio)
system.cpu2.executeStats0.numInsts                  0                       # Number of executed instructions (Count)
system.cpu2.executeStats0.numNop                    0                       # Number of nop insts executed (Count)
system.cpu2.executeStats0.numBranches               0                       # Number of branches executed (Count)
system.cpu2.executeStats0.numLoadInsts              0                       # Number of load instructions executed (Count)
system.cpu2.executeStats0.numStoreInsts       4177315                       # Number of stores executed (Count)
system.cpu2.executeStats0.instRate                  0                       # Inst execution rate ((Count/Cycle))
system.cpu2.executeStats0.numFpAluAccesses      2726405                       # Number of float alu accesses (Count)
system.cpu2.executeStats0.numFpRegReads       1484261                       # Number of times the floating registers were read (Count)
system.cpu2.executeStats0.numFpRegWrites      1406423                       # Number of times the floating registers were written (Count)
system.cpu2.executeStats0.numIntAluAccesses      8164094                       # Number of integer alu accesses (Count)
system.cpu2.executeStats0.numIntRegReads      8674670                       # Number of times the integer registers were read (Count)
system.cpu2.executeStats0.numIntRegWrites      3461759                       # Number of times the integer registers were written (Count)
system.cpu2.executeStats0.numMemRefs          4177315                       # Number of memory refs (Count)
system.cpu2.executeStats0.numMiscRegReads      5220434                       # Number of times the Misc registers were read (Count)
system.cpu2.executeStats0.numMiscRegWrites          329                       # Number of times the Misc registers were written (Count)
system.cpu2.executeStats0.numVecAluAccesses            0                       # Number of vector alu accesses (Count)
system.cpu2.executeStats0.numDiscardedOps            0                       # Number of ops (including micro ops) which were discarded before commit (Count)
system.cpu2.fetchStats0.numInsts              4019181                       # Number of instructions fetched (thread level) (Count)
system.cpu2.fetchStats0.numOps                8976445                       # Number of ops (including micro ops) fetched (thread level) (Count)
system.cpu2.fetchStats0.fetchRate            0.001020                       # Number of inst fetches per cycle ((Count/Cycle))
system.cpu2.fetchStats0.numBranches            502014                       # Number of branches fetched (Count)
system.cpu2.fetchStats0.branchRate           0.000127                       # Number of branch fetches per cycle (Ratio)
system.cpu2.fetchStats0.numFetchSuspends            0                       # Number of times Execute suspended instruction fetching (Count)
system.cpu2.interrupts.clk_domain.clock          8000                       # Clock period in ticks (Tick)
system.cpu2.mmu.dtb.rdAccesses                2001998                       # TLB accesses on read requests (Count)
system.cpu2.mmu.dtb.wrAccesses                2175614                       # TLB accesses on write requests (Count)
system.cpu2.mmu.dtb.rdMisses                     3608                       # TLB misses on read requests (Count)
system.cpu2.mmu.dtb.wrMisses                     3079                       # TLB misses on write requests (Count)
system.cpu2.mmu.dtb.walker.power_state.pwrStateResidencyTicks::UNDEFINED 2967158629500                       # Cumulative time (in ticks) in various power states (Tick)
system.cpu2.mmu.itb.rdAccesses                      0                       # TLB accesses on read requests (Count)
system.cpu2.mmu.itb.wrAccesses                6680177                       # TLB accesses on write requests (Count)
system.cpu2.mmu.itb.rdMisses                        0                       # TLB misses on read requests (Count)
system.cpu2.mmu.itb.wrMisses                      445                       # TLB misses on write requests (Count)
system.cpu2.mmu.itb.walker.power_state.pwrStateResidencyTicks::UNDEFINED 2967158629500                       # Cumulative time (in ticks) in various power states (Tick)
system.cpu2.power_state.numTransitions             27                       # Number of power state transitions (Count)
system.cpu2.power_state.ticksClkGated::samples           14                       # Distribution of time spent in the clock gated state (Tick)
system.cpu2.power_state.ticksClkGated::mean 91317430607.142853                       # Distribution of time spent in the clock gated state (Tick)
system.cpu2.power_state.ticksClkGated::stdev 270941554555.605530                       # Distribution of time spent in the clock gated state (Tick)
system.cpu2.power_state.ticksClkGated::1000-5e+10           12     85.71%     85.71% # Distribution of time spent in the clock gated state (Tick)
system.cpu2.power_state.ticksClkGated::2.5e+11-3e+11            1      7.14%     92.86% # Distribution of time spent in the clock gated state (Tick)
system.cpu2.power_state.ticksClkGated::9.5e+11-1e+12            1      7.14%    100.00% # Distribution of time spent in the clock gated state (Tick)
system.cpu2.power_state.ticksClkGated::min_value      2279500                       # Distribution of time spent in the clock gated state (Tick)
system.cpu2.power_state.ticksClkGated::max_value 996825783000                       # Distribution of time spent in the clock gated state (Tick)
system.cpu2.power_state.ticksClkGated::total           14                       # Distribution of time spent in the clock gated state (Tick)
system.cpu2.power_state.pwrStateResidencyTicks::ON 1688714601000                       # Cumulative time (in ticks) in various power states (Tick)
system.cpu2.power_state.pwrStateResidencyTicks::CLK_GATED 1278444028500                       # Cumulative time (in ticks) in various power states (Tick)
system.cpu2.thread_0.numInsts                       0                       # Number of Instructions committed (Count)
system.cpu2.thread_0.numOps                         0                       # Number of Ops committed (Count)
system.cpu2.thread_0.numMemRefs                     0                       # Number of Memory References (Count)
system.cpu3.allLatencyDist::bucket_size         10000                       # delay distribution for all (Unspecified)
system.cpu3.allLatencyDist::min_bucket              0                       # delay distribution for all (Unspecified)
system.cpu3.allLatencyDist::max_bucket        1600000                       # delay distribution for all (Unspecified)
system.cpu3.allLatencyDist::samples          12145518                       # delay distribution for all (Unspecified)
system.cpu3.allLatencyDist::mean         1415881.600521                       # delay distribution for all (Unspecified)
system.cpu3.allLatencyDist::stdev        1018720.651758                       # delay distribution for all (Unspecified)
system.cpu3.allLatencyDist::underflows              0      0.00%      0.00% # delay distribution for all (Unspecified)
system.cpu3.allLatencyDist               |           0      0.00%      0.00% |           0      0.00%      0.00% |           0      0.00%      0.00% |           0      0.00%      0.00% |           0      0.00%      0.00% |           0      0.00%      0.00% |           0      0.00%      0.00% |           0      0.00%      0.00% |           0      0.00%      0.00% |           0      0.00%      0.00% |       49854      0.41%      0.41% |        5307      0.04%      0.45% |        5303      0.04%      0.50% |        3562      0.03%      0.53% |        2766      0.02%      0.55% |        2781      0.02%      0.57% |        4953      0.04%      0.61% |      131541      1.08%      1.70% |       34343      0.28%      1.98% |       15377      0.13%      2.11% |       11422      0.09%      2.20% |        6071      0.05%      2.25% |        5520      0.05%      2.30% |        7261      0.06%      2.36% |       12959      0.11%      2.46% |        7742      0.06%      2.53% |        4729      0.04%      2.56% |        4517      0.04%      2.60% |        3948      0.03%      2.63% |        5770      0.05%      2.68% |        6638      0.05%      2.74% |        7206      0.06%      2.80% |        8016      0.07%      2.86% |        6800      0.06%      2.92% |       62389      0.51%      3.43% |       48802      0.40%      3.83% |       46707      0.38%      4.22% |       45753      0.38%      4.59% |       45464      0.37%      4.97% |       47876      0.39%      5.36% |       50109      0.41%      5.78% |       58819      0.48%      6.26% |       59600      0.49%      6.75% |       59131      0.49%      7.24% |       59372      0.49%      7.73% |       58953      0.49%      8.21% |       59420      0.49%      8.70% |       61779      0.51%      9.21% |       63224      0.52%      9.73% |       63029      0.52%     10.25% |       62523      0.51%     10.76% |       62978      0.52%     11.28% |       62863      0.52%     11.80% |       64112      0.53%     12.33% |       65144      0.54%     12.86% |       65756      0.54%     13.41% |       65012      0.54%     13.94% |       65346      0.54%     14.48% |       65014      0.54%     15.01% |       64574      0.53%     15.55% |       66103      0.54%     16.09% |       66944      0.55%     16.64% |       67221      0.55%     17.19% |       66901      0.55%     17.75% |       68101      0.56%     18.31% |       68778      0.57%     18.87% |       69249      0.57%     19.44% |       69570      0.57%     20.02% |       70957      0.58%     20.60% |       71109      0.59%     21.19% |       71840      0.59%     21.78% |       71502      0.59%     22.37% |       72018      0.59%     22.96% |       71990      0.59%     23.55% |       71837      0.59%     24.14% |       71496      0.59%     24.73% |       72440      0.60%     25.33% |       71451      0.59%     25.92% |       71678      0.59%     26.51% |       73123      0.60%     27.11% |       73666      0.61%     27.71% |       73395      0.60%     28.32% |       74286      0.61%     28.93% |       74856      0.62%     29.55% |       74259      0.61%     30.16% |       75349      0.62%     30.78% |       75206      0.62%     31.40% |       75010      0.62%     32.02% |       75605      0.62%     32.64% |       75795      0.62%     33.26% |       76312      0.63%     33.89% |       75739      0.62%     34.51% |       74987      0.62%     35.13% |       74212      0.61%     35.74% |       74670      0.61%     36.36% |       75127      0.62%     36.98% |       74287      0.61%     37.59% |       74584      0.61%     38.20% |       74312      0.61%     38.81% |       74315      0.61%     39.43% |       74340      0.61%     40.04% |       74856      0.62%     40.65% |       74941      0.62%     41.27% |       73955      0.61%     41.88% |       74101      0.61%     42.49% |       73641      0.61%     43.10% |       73783      0.61%     43.70% |       72983      0.60%     44.30% |       72702      0.60%     44.90% |       72081      0.59%     45.50% |       70919      0.58%     46.08% |       70600      0.58%     46.66% |       70008      0.58%     47.24% |       69330      0.57%     47.81% |       70055      0.58%     48.39% |       69555      0.57%     48.96% |       68683      0.57%     49.52% |       68114      0.56%     50.08% |       67671      0.56%     50.64% |       68092      0.56%     51.20% |       68124      0.56%     51.76% |       66576      0.55%     52.31% |       66180      0.54%     52.86% |       65576      0.54%     53.40% |       65941      0.54%     53.94% |       64795      0.53%     54.47% |       64888      0.53%     55.01% |       63448      0.52%     55.53% |       63283      0.52%     56.05% |       62188      0.51%     56.56% |       61339      0.51%     57.07% |       60706      0.50%     57.57% |       60492      0.50%     58.07% |       60046      0.49%     58.56% |       59784      0.49%     59.05% |       59015      0.49%     59.54% |       58409      0.48%     60.02% |       57967      0.48%     60.50% |       57053      0.47%     60.97% |       57267      0.47%     61.44% |       57174      0.47%     61.91% |       56484      0.47%     62.37% |       55734      0.46%     62.83% |       54454      0.45%     63.28% |       53692      0.44%     63.72% |       53585      0.44%     64.16% |       52092      0.43%     64.59% |       51612      0.42%     65.02% |       51024      0.42%     65.44% |       51113      0.42%     65.86% |       49540      0.41%     66.27% |       49365      0.41%     66.67% |       48658      0.40%     67.07% |       48725      0.40%     67.47% |       48044      0.40%     67.87% |       47416      0.39%     68.26% |       46740      0.38%     68.65% |       45887      0.38%     69.02% |       45616      0.38%     69.40% |       44604      0.37%     69.77% |        4346      0.04%     69.80% # delay distribution for all (Unspecified)
system.cpu3.allLatencyDist::overflows         3667711     30.20%    100.00% # delay distribution for all (Unspecified)
system.cpu3.allLatencyDist::min_value          105000                       # delay distribution for all (Unspecified)
system.cpu3.allLatencyDist::max_value        23177000                       # delay distribution for all (Unspecified)
system.cpu3.allLatencyDist::total            12145518                       # delay distribution for all (Unspecified)
system.cpu3.loadLatencyDist::bucket_size        10000                       # delay distribution for loads (Unspecified)
system.cpu3.loadLatencyDist::min_bucket             0                       # delay distribution for loads (Unspecified)
system.cpu3.loadLatencyDist::max_bucket       1600000                       # delay distribution for loads (Unspecified)
system.cpu3.loadLatencyDist::samples          9291287                       # delay distribution for loads (Unspecified)
system.cpu3.loadLatencyDist::mean        1465713.243709                       # delay distribution for loads (Unspecified)
system.cpu3.loadLatencyDist::stdev       1069933.168477                       # delay distribution for loads (Unspecified)
system.cpu3.loadLatencyDist::underflows             0      0.00%      0.00% # delay distribution for loads (Unspecified)
[...]
system.cpu3.cacheBlockRoundTrip7::overflows            0                       # Coalsr-to-coalsr time for the Nth cache block in an inst (Unspecified)
system.cpu3.cacheBlockRoundTrip7::min_value            0                       # Coalsr-to-coalsr time for the Nth cache block in an inst (Unspecified)
system.cpu3.cacheBlockRoundTrip7::max_value            0                       # Coalsr-to-coalsr time for the Nth cache block in an inst (Unspecified)
system.cpu3.cacheBlockRoundTrip7::total             0                       # Coalsr-to-coalsr time for the Nth cache block in an inst (Unspecified)
system.cpu3.cacheBlockRoundTrip8::bucket_size        10000                       # Coalsr-to-coalsr time for the Nth cache block in an inst (Unspecified)
system.cpu3.cacheBlockRoundTrip8::min_bucket            0                       # Coalsr-to-coalsr time for the Nth cache block in an inst (Unspecified)
system.cpu3.cacheBlockRoundTrip8::max_bucket      1600000                       # Coalsr-to-coalsr time for the Nth cache block in an inst (Unspecified)
system.cpu3.cacheBlockRoundTrip8::samples            0                       # Coalsr-to-coalsr time for the Nth cache block in an inst (Unspecified)
system.cpu3.cacheBlockRoundTrip8::mean            nan                       # Coalsr-to-coalsr time for the Nth cache block in an inst (Unspecified)
system.cpu3.cacheBlockRoundTrip8::stdev           nan                       # Coalsr-to-coalsr time for the Nth cache block in an inst (Unspecified)
system.cpu3.cacheBlockRoundTrip8::underflows            0                       # Coalsr-to-coalsr time for the Nth cache block in an inst (Unspecified)
system.cpu3.cacheBlockRoundTrip8         |           0                       |           0                       |           0                       |           0                       |           0                       |           0                       |           0                       |           0                       |           0                       |           0                       |           0                       |           0                       |           0                       |           0                       |           0                       |           0                       |           0                       |           0                       |           0                       |           0                       |           0                       |           0                       |           0                       |           0                       |           0                       |           0                       |           0                       |           0                       |           0                       |           0                       |           0                       |           0                       |           0                       |           0                       |           0                       |           0                       |           0                       |           0                       |           0                       |           0                       |           0                       |           0                       |           0                       |           0                       |           0                       |           0                       |           0                       |           0                       |           0                       |           0                       |           0                       |           0                       |           0                       |           0                       |           0                       |           0                       |           0                       |           0                       |           0                       |           0                       |           0                       |           0                       |           0                       |           0                       |           0                       |           0                       |           0                       |           0                       |           0                       |           0                       |           0                       |           0                       |           0                       |           0                       |           0                       |           0                       |           0                       |           0                       |           0                       |           0                       |           0                       |           0                       |           0                       |           0                       |           0                       |           0                       |           0                       |           0                       |           0                       |           0                       |           0                       |           0                       |           0                       |           0                       |           0                       |           0                       |           0                       |           0                       |           0                       |           0                       |           0                       |           0                       |           0                       |           0                       |           0                       |           0                       |           0                       |           0                       |           0                       |           0                       |           0                       |           0                       |           0                       |           0                       |           0                       |           0                       |           0                       |           0                       |           0                       |           0                       |           0                       |           0                       |           0                       |           0                       |           0                       |           0                       |           0                       |           0                       |           0                       |           0                       |           0                       |           0                       |           0                       |           0                       |           0                       |           0                       |           0                       |           0                       |           0                       |           0                       |           0                       |           0                       |           0                       |           0                       |           0                       |           0                       |           0                       |           0                       |           0                       |           0                       |           0                       |           0                       |           0                       |           0                       |           0                       |           0                       |           0                       |           0                       |           0                       |           0                       |           0                       # Coalsr-to-coalsr time for the Nth cache block in an inst (Unspecified)
system.cpu3.cacheBlockRoundTrip8::overflows            0                       # Coalsr-to-coalsr time for the Nth cache block in an inst (Unspecified)
system.cpu3.cacheBlockRoundTrip8::min_value            0                       # Coalsr-to-coalsr time for the Nth cache block in an inst (Unspecified)
system.cpu3.cacheBlockRoundTrip8::max_value            0                       # Coalsr-to-coalsr time for the Nth cache block in an inst (Unspecified)
system.cpu3.cacheBlockRoundTrip8::total             0                       # Coalsr-to-coalsr time for the Nth cache block in an inst (Unspecified)
system.cpu3.cacheBlockRoundTrip9::bucket_size        10000                       # Coalsr-to-coalsr time for the Nth cache block in an inst (Unspecified)
system.cpu3.cacheBlockRoundTrip9::min_bucket            0                       # Coalsr-to-coalsr time for the Nth cache block in an inst (Unspecified)
system.cpu3.cacheBlockRoundTrip9::max_bucket      1600000                       # Coalsr-to-coalsr time for the Nth cache block in an inst (Unspecified)
system.cpu3.cacheBlockRoundTrip9::samples            0                       # Coalsr-to-coalsr time for the Nth cache block in an inst (Unspecified)
system.cpu3.cacheBlockRoundTrip9::mean            nan                       # Coalsr-to-coalsr time for the Nth cache block in an inst (Unspecified)
system.cpu3.cacheBlockRoundTrip9::stdev           nan                       # Coalsr-to-coalsr time for the Nth cache block in an inst (Unspecified)
system.cpu3.cacheBlockRoundTrip9::underflows            0                       # Coalsr-to-coalsr time for the Nth cache block in an inst (Unspecified)
system.cpu3.cacheBlockRoundTrip9         |           0                       |           0                       |           0                       |           0                       |           0                       |           0                       |           0                       |           0                       |           0                       |           0                       |           0                       |           0                       |           0                       |           0                       |           0                       |           0                       |           0                       |           0                       |           0                       |           0                       |           0                       |           0                       |           0                       |           0                       |           0                       |           0                       |           0                       |           0                       |           0                       |           0                       |           0                       |           0                       |           0                       |           0                       |           0                       |           0                       |           0                       |           0                       |           0                       |           0                       |           0                       |           0                       |           0                       |           0                       |           0                       |           0                       |           0                       |           0                       |           0                       |           0                       |           0                       |           0                       |           0                       |           0                       |           0                       |           0                       |           0                       |           0                       |           0                       |           0                       |           0                       |           0                       |           0                       |           0                       |           0                       |           0                       |           0                       |           0                       |           0                       |           0                       |           0                       |           0                       |           0                       |           0                       |           0                       |           0                       |           0                       |           0                       |           0                       |           0                       |           0                       |           0                       |           0                       |           0                       |           0                       |           0                       |           0                       |           0                       |           0                       |           0                       |           0                       |           0                       |           0                       |           0                       |           0                       |           0                       |           0                       |           0                       |           0                       |           0                       |           0                       |           0                       |           0                       |           0                       |           0                       |           0                       |           0                       |           0                       |           0                       |           0                       |           0                       |           0                       |           0                       |           0                       |           0                       |           0                       |           0                       |           0                       |           0                       |           0                       |           0                       |           0                       |           0                       |           0                       |           0                       |           0                       |           0                       |           0                       |           0                       |           0                       |           0                       |           0                       |           0                       |           0                       |           0                       |           0                       |           0                       |           0                       |           0                       |           0                       |           0                       |           0                       |           0                       |           0                       |           0                       |           0                       |           0                       |           0                       |           0                       |           0                       |           0                       |           0                       |           0                       |           0                       |           0                       |           0                       |           0                       |           0                       |           0                       |           0                       |           0                       # Coalsr-to-coalsr time for the Nth cache block in an inst (Unspecified)
system.cpu3.cacheBlockRoundTrip9::overflows            0                       # Coalsr-to-coalsr time for the Nth cache block in an inst (Unspecified)
system.cpu3.cacheBlockRoundTrip9::min_value            0                       # Coalsr-to-coalsr time for the Nth cache block in an inst (Unspecified)
system.cpu3.cacheBlockRoundTrip9::max_value            0                       # Coalsr-to-coalsr time for the Nth cache block in an inst (Unspecified)
system.cpu3.cacheBlockRoundTrip9::total             0                       # Coalsr-to-coalsr time for the Nth cache block in an inst (Unspecified)

---------- End Simulation Statistics   ----------
