
---------- Begin Simulation Statistics ----------
simSeconds                                   0.140041                       # Number of seconds simulated (Second)
simTicks                                 140040530000                       # Number of ticks simulated (Tick)
finalTick                                140040530000                       # Number of ticks from beginning of simulation (restored from checkpoints and never reset) (Tick)
simFreq                                  1000000000000                       # The number of ticks per simulated second ((Tick/Second))
hostSeconds                                    223.19                       # Real time elapsed on the host (Second)
hostTickRate                                627441175                       # The number of ticks simulated per host second (ticks/s) ((Tick/Second))
hostMemory                                    2807408                       # Number of bytes of host memory used (Byte)
simInsts                                     39157261                       # Number of instructions simulated (Count)
simOps                                       78896985                       # Number of ops (including micro ops) simulated (Count)
hostInstRate                                   175441                       # Simulator instruction rate (inst/s) ((Count/Second))
hostOpRate                                     353492                       # Simulator op (including micro ops) rate (op/s) ((Count/Second))
system.clk_domain.clock                          1000                       # Clock period in ticks (Tick)
system.cpu0.numCycles                       280081060                       # Number of cpu cycles simulated (Cycle)
system.cpu0.cpi                              7.433544                       # CPI: cycles per instruction (core level) ((Cycle/Count))
system.cpu0.ipc                              0.134525                       # IPC: instructions per cycle (core level) ((Count/Cycle))
system.cpu0.numWorkItemsStarted                     0                       # Number of work items this cpu started (Count)
system.cpu0.numWorkItemsCompleted                   0                       # Number of work items this cpu completed (Count)
system.cpu0.clk_domain.clock                      500                       # Clock period in ticks (Tick)
system.cpu0.clk_domain.voltage_domain.voltage            1                       # Voltage in Volts (Volt)
system.cpu0.commitStats0.numInsts            37677997                       # Number of instructions committed (thread level) (Count)
system.cpu0.commitStats0.numOps              75951225                       # Number of ops (including micro ops) committed (thread level) (Count)
system.cpu0.commitStats0.numInstsNotNOP             0                       # Number of instructions committed excluding NOPs or prefetches (Count)
system.cpu0.commitStats0.numOpsNotNOP               0                       # Number of Ops (including micro ops) Simulated (Count)
system.cpu0.commitStats0.cpi                 7.433544                       # CPI: cycles per instruction (thread level) ((Cycle/Count))
system.cpu0.commitStats0.ipc                 0.134525                       # IPC: instructions per cycle (thread level) ((Count/Cycle))
system.cpu0.commitStats0.numMemRefs                 0                       # Number of memory references committed (Count)
system.cpu0.commitStats0.numFpInsts          21702158                       # Number of float instructions (Count)
system.cpu0.commitStats0.numIntInsts         58921518                       # Number of integer instructions (Count)
system.cpu0.commitStats0.numLoadInsts         7723231                       # Number of load instructions (Count)
system.cpu0.commitStats0.numStoreInsts        2863074                       # Number of store instructions (Count)
system.cpu0.commitStats0.numVecInsts                0                       # Number of vector instructions (Count)
system.cpu0.commitStats0.committedInstType::No_OpClass       707059      0.93%      0.93% # Class of committed instruction. (Count)
system.cpu0.commitStats0.committedInstType::IntAlu     47852194     63.00%     63.93% # Class of committed instruction. (Count)
system.cpu0.commitStats0.committedInstType::IntMult        95367      0.13%     64.06% # Class of committed instruction. (Count)
system.cpu0.commitStats0.committedInstType::IntDiv        66387      0.09%     64.15% # Class of committed instruction. (Count)
system.cpu0.commitStats0.committedInstType::FloatAdd      4204960      5.54%     69.68% # Class of committed instruction. (Count)
system.cpu0.commitStats0.committedInstType::FloatCmp           51      0.00%     69.68% # Class of committed instruction. (Count)
system.cpu0.commitStats0.committedInstType::FloatCvt         7170      0.01%     69.69% # Class of committed instruction. (Count)
system.cpu0.commitStats0.committedInstType::FloatMult           17      0.00%     69.69% # Class of committed instruction. (Count)
system.cpu0.commitStats0.committedInstType::FloatMultAcc            0      0.00%     69.69% # Class of committed instruction. (Count)
system.cpu0.commitStats0.committedInstType::FloatDiv           17      0.00%     69.69% # Class of committed instruction. (Count)
system.cpu0.commitStats0.committedInstType::FloatMisc            0      0.00%     69.69% # Class of committed instruction. (Count)
system.cpu0.commitStats0.committedInstType::FloatSqrt            0      0.00%     69.69% # Class of committed instruction. (Count)
system.cpu0.commitStats0.committedInstType::SimdAdd      1018940      1.34%     71.04% # Class of committed instruction. (Count)
system.cpu0.commitStats0.committedInstType::SimdAddAcc            0      0.00%     71.04% # Class of committed instruction. (Count)
system.cpu0.commitStats0.committedInstType::SimdAlu      2635245      3.47%     74.50% # Class of committed instruction. (Count)
system.cpu0.commitStats0.committedInstType::SimdCmp         3198      0.00%     74.51% # Class of committed instruction. (Count)
system.cpu0.commitStats0.committedInstType::SimdCvt        77074      0.10%     74.61% # Class of committed instruction. (Count)
system.cpu0.commitStats0.committedInstType::SimdMisc      4355069      5.73%     80.34% # Class of committed instruction. (Count)
system.cpu0.commitStats0.committedInstType::SimdMult            0      0.00%     80.34% # Class of committed instruction. (Count)
system.cpu0.commitStats0.committedInstType::SimdMultAcc            0      0.00%     80.34% # Class of committed instruction. (Count)
system.cpu0.commitStats0.committedInstType::SimdMatMultAcc            0      0.00%     80.34% # Class of committed instruction. (Count)
system.cpu0.commitStats0.committedInstType::SimdShift         8598      0.01%     80.36% # Class of committed instruction. (Count)
system.cpu0.commitStats0.committedInstType::SimdShiftAcc            0      0.00%     80.36% # Class of committed instruction. (Count)
system.cpu0.commitStats0.committedInstType::SimdDiv            0      0.00%     80.36% # Class of committed instruction. (Count)
system.cpu0.commitStats0.committedInstType::SimdSqrt            0      0.00%     80.36% # Class of committed instruction. (Count)
system.cpu0.commitStats0.committedInstType::SimdFloatAdd       592609      0.78%     81.14% # Class of committed instruction. (Count)
system.cpu0.commitStats0.committedInstType::SimdFloatAlu            0      0.00%     81.14% # Class of committed instruction. (Count)
system.cpu0.commitStats0.committedInstType::SimdFloatCmp            0      0.00%     81.14% # Class of committed instruction. (Count)
system.cpu0.commitStats0.committedInstType::SimdFloatCvt      2555717      3.36%     84.50% # Class of committed instruction. (Count)
system.cpu0.commitStats0.committedInstType::SimdFloatDiv            5      0.00%     84.50% # Class of committed instruction. (Count)
system.cpu0.commitStats0.committedInstType::SimdFloatMisc            0      0.00%     84.50% # Class of committed instruction. (Count)
system.cpu0.commitStats0.committedInstType::SimdFloatMult      1185243      1.56%     86.06% # Class of committed instruction. (Count)
system.cpu0.commitStats0.committedInstType::SimdFloatMultAcc            0      0.00%     86.06% # Class of committed instruction. (Count)
system.cpu0.commitStats0.committedInstType::SimdFloatMatMultAcc            0      0.00%     86.06% # Class of committed instruction. (Count)
system.cpu0.commitStats0.committedInstType::SimdFloatSqrt            0      0.00%     86.06% # Class of committed instruction. (Count)
system.cpu0.commitStats0.committedInstType::SimdReduceAdd            0      0.00%     86.06% # Class of committed instruction. (Count)
system.cpu0.commitStats0.committedInstType::SimdReduceAlu            0      0.00%     86.06% # Class of committed instruction. (Count)
system.cpu0.commitStats0.committedInstType::SimdReduceCmp            0      0.00%     86.06% # Class of committed instruction. (Count)
system.cpu0.commitStats0.committedInstType::SimdFloatReduceAdd            0      0.00%     86.06% # Class of committed instruction. (Count)
system.cpu0.commitStats0.committedInstType::SimdFloatReduceCmp            0      0.00%     86.06% # Class of committed instruction. (Count)
system.cpu0.commitStats0.committedInstType::SimdAes            0      0.00%     86.06% # Class of committed instruction. (Count)
system.cpu0.commitStats0.committedInstType::SimdAesMix            0      0.00%     86.06% # Class of committed instruction. (Count)
system.cpu0.commitStats0.committedInstType::SimdSha1Hash            0      0.00%     86.06% # Class of committed instruction. (Count)
system.cpu0.commitStats0.committedInstType::SimdSha1Hash2            0      0.00%     86.06% # Class of committed instruction. (Count)
system.cpu0.commitStats0.committedInstType::SimdSha256Hash            0      0.00%     86.06% # Class of committed instruction. (Count)
system.cpu0.commitStats0.committedInstType::SimdSha256Hash2            0      0.00%     86.06% # Class of committed instruction. (Count)
system.cpu0.commitStats0.committedInstType::SimdShaSigma2            0      0.00%     86.06% # Class of committed instruction. (Count)
system.cpu0.commitStats0.committedInstType::SimdShaSigma3            0      0.00%     86.06% # Class of committed instruction. (Count)
system.cpu0.commitStats0.committedInstType::SimdPredAlu            0      0.00%     86.06% # Class of committed instruction. (Count)
system.cpu0.commitStats0.committedInstType::Matrix            0      0.00%     86.06% # Class of committed instruction. (Count)
system.cpu0.commitStats0.committedInstType::MatrixMov            0      0.00%     86.06% # Class of committed instruction. (Count)
system.cpu0.commitStats0.committedInstType::MatrixOP            0      0.00%     86.06% # Class of committed instruction. (Count)
system.cpu0.commitStats0.committedInstType::MemRead      5021786      6.61%     92.67% # Class of committed instruction. (Count)
system.cpu0.commitStats0.committedInstType::MemWrite      2252697      2.97%     95.64% # Class of committed instruction. (Count)
system.cpu0.commitStats0.committedInstType::FloatMemRead      2701445      3.56%     99.20% # Class of committed instruction. (Count)
system.cpu0.commitStats0.committedInstType::FloatMemWrite       610377      0.80%    100.00% # Class of committed instruction. (Count)
system.cpu0.commitStats0.committedInstType::IprAccess            0      0.00%    100.00% # Class of committed instruction. (Count)
system.cpu0.commitStats0.committedInstType::InstPrefetch            0      0.00%    100.00% # Class of committed instruction. (Count)
system.cpu0.commitStats0.committedInstType::VectorUnitStrideLoad            0      0.00%    100.00% # Class of committed instruction. (Count)
system.cpu0.commitStats0.committedInstType::VectorUnitStrideStore            0      0.00%    100.00% # Class of committed instruction. (Count)
system.cpu0.commitStats0.committedInstType::VectorUnitStrideMaskLoad            0      0.00%    100.00% # Class of committed instruction. (Count)
system.cpu0.commitStats0.committedInstType::VectorUnitStrideMaskStore            0      0.00%    100.00% # Class of committed instruction. (Count)
system.cpu0.commitStats0.committedInstType::VectorStridedLoad            0      0.00%    100.00% # Class of committed instruction. (Count)
system.cpu0.commitStats0.committedInstType::VectorStridedStore            0      0.00%    100.00% # Class of committed instruction. (Count)
system.cpu0.commitStats0.committedInstType::VectorIndexedLoad            0      0.00%    100.00% # Class of committed instruction. (Count)
system.cpu0.commitStats0.committedInstType::VectorIndexedStore            0      0.00%    100.00% # Class of committed instruction. (Count)
system.cpu0.commitStats0.committedInstType::VectorUnitStrideFaultOnlyFirstLoad            0      0.00%    100.00% # Class of committed instruction. (Count)
system.cpu0.commitStats0.committedInstType::VectorWholeRegisterLoad            0      0.00%    100.00% # Class of committed instruction. (Count)
system.cpu0.commitStats0.committedInstType::VectorWholeRegisterStore            0      0.00%    100.00% # Class of committed instruction. (Count)
system.cpu0.commitStats0.committedInstType::VectorIntegerArith            0      0.00%    100.00% # Class of committed instruction. (Count)
system.cpu0.commitStats0.committedInstType::VectorFloatArith            0      0.00%    100.00% # Class of committed instruction. (Count)
system.cpu0.commitStats0.committedInstType::VectorFloatConvert            0      0.00%    100.00% # Class of committed instruction. (Count)
system.cpu0.commitStats0.committedInstType::VectorIntegerReduce            0      0.00%    100.00% # Class of committed instruction. (Count)
system.cpu0.commitStats0.committedInstType::VectorFloatReduce            0      0.00%    100.00% # Class of committed instruction. (Count)
system.cpu0.commitStats0.committedInstType::VectorMisc            0      0.00%    100.00% # Class of committed instruction. (Count)
system.cpu0.commitStats0.committedInstType::VectorIntegerExtension            0      0.00%    100.00% # Class of committed instruction. (Count)
system.cpu0.commitStats0.committedInstType::VectorConfig            0      0.00%    100.00% # Class of committed instruction. (Count)
system.cpu0.commitStats0.committedInstType::total     75951225                       # Class of committed instruction. (Count)
system.cpu0.commitStats0.committedControl::IsControl      9040845                       # Class of control type instructions committed (Count)
system.cpu0.commitStats0.committedControl::IsDirectControl      8276507                       # Class of control type instructions committed (Count)
system.cpu0.commitStats0.committedControl::IsIndirectControl       763027                       # Class of control type instructions committed (Count)
system.cpu0.commitStats0.committedControl::IsCondControl      7197851                       # Class of control type instructions committed (Count)
system.cpu0.commitStats0.committedControl::IsUncondControl      1841683                       # Class of control type instructions committed (Count)
system.cpu0.commitStats0.committedControl::IsCall       447101                       # Class of control type instructions committed (Count)
system.cpu0.commitStats0.committedControl::IsReturn       447083                       # Class of control type instructions committed (Count)
system.cpu0.exec_context.thread_0.numMatAluAccesses            0                       # Number of matrix alu accesses (Count)
system.cpu0.exec_context.thread_0.numCallsReturns       894184                       # Number of times a function call or return occured (Count)
system.cpu0.exec_context.thread_0.numMatInsts            0                       # Number of matrix instructions (Count)
system.cpu0.exec_context.thread_0.numIdleCycles 6769331.001952                       # Number of idle cycles (Cycle)
system.cpu0.exec_context.thread_0.numBusyCycles 273311728.998048                       # Number of busy cycles (Cycle)
system.cpu0.exec_context.thread_0.notIdleFraction     0.975831                       # Percentage of non-idle cycles (Ratio)
system.cpu0.exec_context.thread_0.idleFraction     0.024169                       # Percentage of idle cycles (Ratio)
system.cpu0.executeStats0.numInsts                  0                       # Number of executed instructions (Count)
system.cpu0.executeStats0.numNop                    0                       # Number of nop insts executed (Count)
system.cpu0.executeStats0.numBranches               0                       # Number of branches executed (Count)
system.cpu0.executeStats0.numLoadInsts              0                       # Number of load instructions executed (Count)
system.cpu0.executeStats0.numStoreInsts      10586305                       # Number of stores executed (Count)
system.cpu0.executeStats0.instRate                  0                       # Inst execution rate ((Count/Cycle))
system.cpu0.executeStats0.numFpAluAccesses     21702158                       # Number of float alu accesses (Count)
system.cpu0.executeStats0.numFpRegReads      30509579                       # Number of times the floating registers were read (Count)
system.cpu0.executeStats0.numFpRegWrites     18658184                       # Number of times the floating registers were written (Count)
system.cpu0.executeStats0.numIntAluAccesses     58921518                       # Number of integer alu accesses (Count)
system.cpu0.executeStats0.numIntRegReads     67368711                       # Number of times the integer registers were read (Count)
system.cpu0.executeStats0.numIntRegWrites     38753918                       # Number of times the integer registers were written (Count)
system.cpu0.executeStats0.numMemRefs         10586305                       # Number of memory refs (Count)
system.cpu0.executeStats0.numMiscRegReads     28869601                       # Number of times the Misc registers were read (Count)
system.cpu0.executeStats0.numMiscRegWrites         4558                       # Number of times the Misc registers were written (Count)
system.cpu0.executeStats0.numVecAluAccesses            0                       # Number of vector alu accesses (Count)
system.cpu0.executeStats0.numDiscardedOps            0                       # Number of ops (including micro ops) which were discarded before commit (Count)
system.cpu0.fetchStats0.numInsts             37677997                       # Number of instructions fetched (thread level) (Count)
system.cpu0.fetchStats0.numOps               75951225                       # Number of ops (including micro ops) fetched (thread level) (Count)
system.cpu0.fetchStats0.fetchRate            0.134525                       # Number of inst fetches per cycle ((Count/Cycle))
system.cpu0.fetchStats0.numBranches           9040845                       # Number of branches fetched (Count)
system.cpu0.fetchStats0.branchRate           0.032279                       # Number of branch fetches per cycle (Ratio)
system.cpu0.fetchStats0.numFetchSuspends            0                       # Number of times Execute suspended instruction fetching (Count)
system.cpu0.interrupts.clk_domain.clock          8000                       # Clock period in ticks (Tick)
system.cpu0.mmu.dtb.rdAccesses                7730511                       # TLB accesses on read requests (Count)
system.cpu0.mmu.dtb.wrAccesses                2865375                       # TLB accesses on write requests (Count)
system.cpu0.mmu.dtb.rdMisses                    18627                       # TLB misses on read requests (Count)
system.cpu0.mmu.dtb.wrMisses                     4291                       # TLB misses on write requests (Count)
system.cpu0.mmu.dtb.walker.power_state.pwrStateResidencyTicks::UNDEFINED 140040530000                       # Cumulative time (in ticks) in various power states (Tick)
system.cpu0.mmu.itb.rdAccesses                      0                       # TLB accesses on read requests (Count)
system.cpu0.mmu.itb.wrAccesses               51052990                       # TLB accesses on write requests (Count)
system.cpu0.mmu.itb.rdMisses                        0                       # TLB misses on read requests (Count)
system.cpu0.mmu.itb.wrMisses                     3969                       # TLB misses on write requests (Count)
system.cpu0.mmu.itb.walker.power_state.pwrStateResidencyTicks::UNDEFINED 140040530000                       # Cumulative time (in ticks) in various power states (Tick)
system.cpu0.power_state.numTransitions              6                       # Number of power state transitions (Count)
system.cpu0.power_state.ticksClkGated::samples            3                       # Distribution of time spent in the clock gated state (Tick)
system.cpu0.power_state.ticksClkGated::mean 1128221833.333333                       # Distribution of time spent in the clock gated state (Tick)
system.cpu0.power_state.ticksClkGated::stdev 1859408823.310875                       # Distribution of time spent in the clock gated state (Tick)
system.cpu0.power_state.ticksClkGated::1000-5e+10            3    100.00%    100.00% # Distribution of time spent in the clock gated state (Tick)
system.cpu0.power_state.ticksClkGated::min_value     35696500                       # Distribution of time spent in the clock gated state (Tick)
system.cpu0.power_state.ticksClkGated::max_value   3275169500                       # Distribution of time spent in the clock gated state (Tick)
system.cpu0.power_state.ticksClkGated::total            3                       # Distribution of time spent in the clock gated state (Tick)
system.cpu0.power_state.pwrStateResidencyTicks::ON 136655864500                       # Cumulative time (in ticks) in various power states (Tick)
system.cpu0.power_state.pwrStateResidencyTicks::CLK_GATED   3384665500                       # Cumulative time (in ticks) in various power states (Tick)
system.cpu0.thread_0.numInsts                       0                       # Number of Instructions committed (Count)
system.cpu0.thread_0.numOps                         0                       # Number of Ops committed (Count)
system.cpu0.thread_0.numMemRefs                     0                       # Number of Memory References (Count)
system.cpu0.workload.numSyscalls               182611                       # Number of system calls (Count)
system.cpu0.workload.drivers0.device.dispatcher.numKernelLaunched            1                       # number of kernel launched (Unspecified)
system.cpu0.workload.drivers0.device.dispatcher.cyclesWaitingForDispatch         1985                       # number of cycles with outstanding wavefronts that are waiting to be dispatched (Unspecified)
system.cpu0.workload.drivers0.device.hsapp.power_state.pwrStateResidencyTicks::UNDEFINED 140040530000                       # Cumulative time (in ticks) in various power states (Tick)
system.cpu0.workload.drivers0.device.hsapp.walker.power_state.pwrStateResidencyTicks::UNDEFINED 140040530000                       # Cumulative time (in ticks) in various power states (Tick)
system.cpu0.workload.drivers0.device.power_state.pwrStateResidencyTicks::UNDEFINED 140040530000                       # Cumulative time (in ticks) in various power states (Tick)
system.cpu0.workload.drivers0.device.walker.power_state.pwrStateResidencyTicks::UNDEFINED 140040530000                       # Cumulative time (in ticks) in various power states (Tick)
system.cpu1.numCycles                       197483819                       # Number of cpu cycles simulated (Cycle)
system.cpu1.cpi                            566.013531                       # CPI: cycles per instruction (core level) ((Cycle/Count))
system.cpu1.ipc                              0.001767                       # IPC: instructions per cycle (core level) ((Count/Cycle))
system.cpu1.numWorkItemsStarted                     0                       # Number of work items this cpu started (Count)
system.cpu1.numWorkItemsCompleted                   0                       # Number of work items this cpu completed (Count)
system.cpu1.clk_domain.clock                      500                       # Clock period in ticks (Tick)
system.cpu1.clk_domain.voltage_domain.voltage            1                       # Voltage in Volts (Volt)
system.cpu1.commitStats0.numInsts              348903                       # Number of instructions committed (thread level) (Count)
system.cpu1.commitStats0.numOps                649786                       # Number of ops (including micro ops) committed (thread level) (Count)
system.cpu1.commitStats0.numInstsNotNOP             0                       # Number of instructions committed excluding NOPs or prefetches (Count)
system.cpu1.commitStats0.numOpsNotNOP               0                       # Number of Ops (including micro ops) Simulated (Count)
system.cpu1.commitStats0.cpi               566.013531                       # CPI: cycles per instruction (thread level) ((Cycle/Count))
system.cpu1.commitStats0.ipc                 0.001767                       # IPC: instructions per cycle (thread level) ((Count/Cycle))
system.cpu1.commitStats0.numMemRefs                 0                       # Number of memory references committed (Count)
system.cpu1.commitStats0.numFpInsts             20460                       # Number of float instructions (Count)
system.cpu1.commitStats0.numIntInsts           626175                       # Number of integer instructions (Count)
system.cpu1.commitStats0.numLoadInsts          145097                       # Number of load instructions (Count)
system.cpu1.commitStats0.numStoreInsts          15030                       # Number of store instructions (Count)
system.cpu1.commitStats0.numVecInsts                0                       # Number of vector instructions (Count)
system.cpu1.commitStats0.committedInstType::No_OpClass        10617      1.63%      1.63% # Class of committed instruction. (Count)
system.cpu1.commitStats0.committedInstType::IntAlu       464804     71.53%     73.17% # Class of committed instruction. (Count)
system.cpu1.commitStats0.committedInstType::IntMult            5      0.00%     73.17% # Class of committed instruction. (Count)
system.cpu1.commitStats0.committedInstType::IntDiv           75      0.01%     73.18% # Class of committed instruction. (Count)
system.cpu1.commitStats0.committedInstType::FloatAdd         2884      0.44%     73.62% # Class of committed instruction. (Count)
system.cpu1.commitStats0.committedInstType::FloatCmp            0      0.00%     73.62% # Class of committed instruction. (Count)
system.cpu1.commitStats0.committedInstType::FloatCvt           48      0.01%     73.63% # Class of committed instruction. (Count)
system.cpu1.commitStats0.committedInstType::FloatMult            0      0.00%     73.63% # Class of committed instruction. (Count)
system.cpu1.commitStats0.committedInstType::FloatMultAcc            0      0.00%     73.63% # Class of committed instruction. (Count)
system.cpu1.commitStats0.committedInstType::FloatDiv            0      0.00%     73.63% # Class of committed instruction. (Count)
system.cpu1.commitStats0.committedInstType::FloatMisc            0      0.00%     73.63% # Class of committed instruction. (Count)
system.cpu1.commitStats0.committedInstType::FloatSqrt            0      0.00%     73.63% # Class of committed instruction. (Count)
system.cpu1.commitStats0.committedInstType::SimdAdd           20      0.00%     73.63% # Class of committed instruction. (Count)
system.cpu1.commitStats0.committedInstType::SimdAddAcc            0      0.00%     73.63% # Class of committed instruction. (Count)
system.cpu1.commitStats0.committedInstType::SimdAlu         2774      0.43%     74.06% # Class of committed instruction. (Count)
system.cpu1.commitStats0.committedInstType::SimdCmp            0      0.00%     74.06% # Class of committed instruction. (Count)
system.cpu1.commitStats0.committedInstType::SimdCvt           40      0.01%     74.07% # Class of committed instruction. (Count)
system.cpu1.commitStats0.committedInstType::SimdMisc         1568      0.24%     74.31% # Class of committed instruction. (Count)
system.cpu1.commitStats0.committedInstType::SimdMult            0      0.00%     74.31% # Class of committed instruction. (Count)
system.cpu1.commitStats0.committedInstType::SimdMultAcc            0      0.00%     74.31% # Class of committed instruction. (Count)
system.cpu1.commitStats0.committedInstType::SimdMatMultAcc            0      0.00%     74.31% # Class of committed instruction. (Count)
system.cpu1.commitStats0.committedInstType::SimdShift           21      0.00%     74.31% # Class of committed instruction. (Count)
system.cpu1.commitStats0.committedInstType::SimdShiftAcc            0      0.00%     74.31% # Class of committed instruction. (Count)
system.cpu1.commitStats0.committedInstType::SimdDiv            0      0.00%     74.31% # Class of committed instruction. (Count)
system.cpu1.commitStats0.committedInstType::SimdSqrt            0      0.00%     74.31% # Class of committed instruction. (Count)
system.cpu1.commitStats0.committedInstType::SimdFloatAdd         1361      0.21%     74.52% # Class of committed instruction. (Count)
system.cpu1.commitStats0.committedInstType::SimdFloatAlu            0      0.00%     74.52% # Class of committed instruction. (Count)
system.cpu1.commitStats0.committedInstType::SimdFloatCmp            0      0.00%     74.52% # Class of committed instruction. (Count)
system.cpu1.commitStats0.committedInstType::SimdFloatCvt         4073      0.63%     75.15% # Class of committed instruction. (Count)
system.cpu1.commitStats0.committedInstType::SimdFloatDiv            9      0.00%     75.15% # Class of committed instruction. (Count)
system.cpu1.commitStats0.committedInstType::SimdFloatMisc            0      0.00%     75.15% # Class of committed instruction. (Count)
system.cpu1.commitStats0.committedInstType::SimdFloatMult         1360      0.21%     75.36% # Class of committed instruction. (Count)
system.cpu1.commitStats0.committedInstType::SimdFloatMultAcc            0      0.00%     75.36% # Class of committed instruction. (Count)
system.cpu1.commitStats0.committedInstType::SimdFloatMatMultAcc            0      0.00%     75.36% # Class of committed instruction. (Count)
system.cpu1.commitStats0.committedInstType::SimdFloatSqrt            0      0.00%     75.36% # Class of committed instruction. (Count)
system.cpu1.commitStats0.committedInstType::SimdReduceAdd            0      0.00%     75.36% # Class of committed instruction. (Count)
system.cpu1.commitStats0.committedInstType::SimdReduceAlu            0      0.00%     75.36% # Class of committed instruction. (Count)
system.cpu1.commitStats0.committedInstType::SimdReduceCmp            0      0.00%     75.36% # Class of committed instruction. (Count)
system.cpu1.commitStats0.committedInstType::SimdFloatReduceAdd            0      0.00%     75.36% # Class of committed instruction. (Count)
system.cpu1.commitStats0.committedInstType::SimdFloatReduceCmp            0      0.00%     75.36% # Class of committed instruction. (Count)
system.cpu1.commitStats0.committedInstType::SimdAes            0      0.00%     75.36% # Class of committed instruction. (Count)
system.cpu1.commitStats0.committedInstType::SimdAesMix            0      0.00%     75.36% # Class of committed instruction. (Count)
system.cpu1.commitStats0.committedInstType::SimdSha1Hash            0      0.00%     75.36% # Class of committed instruction. (Count)
system.cpu1.commitStats0.committedInstType::SimdSha1Hash2            0      0.00%     75.36% # Class of committed instruction. (Count)
system.cpu1.commitStats0.committedInstType::SimdSha256Hash            0      0.00%     75.36% # Class of committed instruction. (Count)
system.cpu1.commitStats0.committedInstType::SimdSha256Hash2            0      0.00%     75.36% # Class of committed instruction. (Count)
system.cpu1.commitStats0.committedInstType::SimdShaSigma2            0      0.00%     75.36% # Class of committed instruction. (Count)
system.cpu1.commitStats0.committedInstType::SimdShaSigma3            0      0.00%     75.36% # Class of committed instruction. (Count)
system.cpu1.commitStats0.committedInstType::SimdPredAlu            0      0.00%     75.36% # Class of committed instruction. (Count)
system.cpu1.commitStats0.committedInstType::Matrix            0      0.00%     75.36% # Class of committed instruction. (Count)
system.cpu1.commitStats0.committedInstType::MatrixMov            0      0.00%     75.36% # Class of committed instruction. (Count)
system.cpu1.commitStats0.committedInstType::MatrixOP            0      0.00%     75.36% # Class of committed instruction. (Count)
system.cpu1.commitStats0.committedInstType::MemRead       139508     21.47%     96.83% # Class of committed instruction. (Count)
system.cpu1.commitStats0.committedInstType::MemWrite        14477      2.23%     99.05% # Class of committed instruction. (Count)
system.cpu1.commitStats0.committedInstType::FloatMemRead         5589      0.86%     99.91% # Class of committed instruction. (Count)
system.cpu1.commitStats0.committedInstType::FloatMemWrite          553      0.09%    100.00% # Class of committed instruction. (Count)
system.cpu1.commitStats0.committedInstType::IprAccess            0      0.00%    100.00% # Class of committed instruction. (Count)
system.cpu1.commitStats0.committedInstType::InstPrefetch            0      0.00%    100.00% # Class of committed instruction. (Count)
system.cpu1.commitStats0.committedInstType::VectorUnitStrideLoad            0      0.00%    100.00% # Class of committed instruction. (Count)
system.cpu1.commitStats0.committedInstType::VectorUnitStrideStore            0      0.00%    100.00% # Class of committed instruction. (Count)
system.cpu1.commitStats0.committedInstType::VectorUnitStrideMaskLoad            0      0.00%    100.00% # Class of committed instruction. (Count)
system.cpu1.commitStats0.committedInstType::VectorUnitStrideMaskStore            0      0.00%    100.00% # Class of committed instruction. (Count)
system.cpu1.commitStats0.committedInstType::VectorStridedLoad            0      0.00%    100.00% # Class of committed instruction. (Count)
system.cpu1.commitStats0.committedInstType::VectorStridedStore            0      0.00%    100.00% # Class of committed instruction. (Count)
system.cpu1.commitStats0.committedInstType::VectorIndexedLoad            0      0.00%    100.00% # Class of committed instruction. (Count)
system.cpu1.commitStats0.committedInstType::VectorIndexedStore            0      0.00%    100.00% # Class of committed instruction. (Count)
system.cpu1.commitStats0.committedInstType::VectorUnitStrideFaultOnlyFirstLoad            0      0.00%    100.00% # Class of committed instruction. (Count)
system.cpu1.commitStats0.committedInstType::VectorWholeRegisterLoad            0      0.00%    100.00% # Class of committed instruction. (Count)
system.cpu1.commitStats0.committedInstType::VectorWholeRegisterStore            0      0.00%    100.00% # Class of committed instruction. (Count)
system.cpu1.commitStats0.committedInstType::VectorIntegerArith            0      0.00%    100.00% # Class of committed instruction. (Count)
system.cpu1.commitStats0.committedInstType::VectorFloatArith            0      0.00%    100.00% # Class of committed instruction. (Count)
system.cpu1.commitStats0.committedInstType::VectorFloatConvert            0      0.00%    100.00% # Class of committed instruction. (Count)
system.cpu1.commitStats0.committedInstType::VectorIntegerReduce            0      0.00%    100.00% # Class of committed instruction. (Count)
system.cpu1.commitStats0.committedInstType::VectorFloatReduce            0      0.00%    100.00% # Class of committed instruction. (Count)
system.cpu1.commitStats0.committedInstType::VectorMisc            0      0.00%    100.00% # Class of committed instruction. (Count)
system.cpu1.commitStats0.committedInstType::VectorIntegerExtension            0      0.00%    100.00% # Class of committed instruction. (Count)
system.cpu1.commitStats0.committedInstType::VectorConfig            0      0.00%    100.00% # Class of committed instruction. (Count)
system.cpu1.commitStats0.committedInstType::total       649786                       # Class of committed instruction. (Count)
system.cpu1.commitStats0.committedControl::IsControl       111112                       # Class of control type instructions committed (Count)
system.cpu1.commitStats0.committedControl::IsDirectControl        92908                       # Class of control type instructions committed (Count)
system.cpu1.commitStats0.committedControl::IsIndirectControl        18201                       # Class of control type instructions committed (Count)
system.cpu1.commitStats0.committedControl::IsCondControl        90122                       # Class of control type instructions committed (Count)
system.cpu1.commitStats0.committedControl::IsUncondControl        20987                       # Class of control type instructions committed (Count)
system.cpu1.commitStats0.committedControl::IsCall         9135                       # Class of control type instructions committed (Count)
system.cpu1.commitStats0.committedControl::IsReturn         9127                       # Class of control type instructions committed (Count)
system.cpu1.exec_context.thread_0.numMatAluAccesses            0                       # Number of matrix alu accesses (Count)
system.cpu1.exec_context.thread_0.numCallsReturns        18262                       # Number of times a function call or return occured (Count)
system.cpu1.exec_context.thread_0.numMatInsts            0                       # Number of matrix instructions (Count)
system.cpu1.exec_context.thread_0.numIdleCycles 196508418.464705                       # Number of idle cycles (Cycle)
system.cpu1.exec_context.thread_0.numBusyCycles 975400.535295                       # Number of busy cycles (Cycle)
system.cpu1.exec_context.thread_0.notIdleFraction     0.004939                       # Percentage of non-idle cycles (Ratio)
system.cpu1.exec_context.thread_0.idleFraction     0.995061                       # Percentage of idle cycles (Ratio)
system.cpu1.executeStats0.numInsts                  0                       # Number of executed instructions (Count)
system.cpu1.executeStats0.numNop                    0                       # Number of nop insts executed (Count)
system.cpu1.executeStats0.numBranches               0                       # Number of branches executed (Count)
system.cpu1.executeStats0.numLoadInsts              0                       # Number of load instructions executed (Count)
system.cpu1.executeStats0.numStoreInsts        160127                       # Number of stores executed (Count)
system.cpu1.executeStats0.instRate                  0                       # Inst execution rate ((Count/Cycle))
system.cpu1.executeStats0.numFpAluAccesses        20460                       # Number of float alu accesses (Count)
system.cpu1.executeStats0.numFpRegReads         24635                       # Number of times the floating registers were read (Count)
system.cpu1.executeStats0.numFpRegWrites        17130                       # Number of times the floating registers were written (Count)
system.cpu1.executeStats0.numIntAluAccesses       626175                       # Number of integer alu accesses (Count)
system.cpu1.executeStats0.numIntRegReads       682499                       # Number of times the integer registers were read (Count)
system.cpu1.executeStats0.numIntRegWrites       407199                       # Number of times the integer registers were written (Count)
system.cpu1.executeStats0.numMemRefs           160127                       # Number of memory refs (Count)
system.cpu1.executeStats0.numMiscRegReads       377396                       # Number of times the Misc registers were read (Count)
system.cpu1.executeStats0.numMiscRegWrites           27                       # Number of times the Misc registers were written (Count)
system.cpu1.executeStats0.numVecAluAccesses            0                       # Number of vector alu accesses (Count)
system.cpu1.executeStats0.numDiscardedOps            0                       # Number of ops (including micro ops) which were discarded before commit (Count)
system.cpu1.fetchStats0.numInsts               348903                       # Number of instructions fetched (thread level) (Count)
system.cpu1.fetchStats0.numOps                 649786                       # Number of ops (including micro ops) fetched (thread level) (Count)
system.cpu1.fetchStats0.fetchRate            0.001767                       # Number of inst fetches per cycle ((Count/Cycle))
system.cpu1.fetchStats0.numBranches            111112                       # Number of branches fetched (Count)
system.cpu1.fetchStats0.branchRate           0.000563                       # Number of branch fetches per cycle (Ratio)
system.cpu1.fetchStats0.numFetchSuspends            0                       # Number of times Execute suspended instruction fetching (Count)
system.cpu1.interrupts.clk_domain.clock          8000                       # Clock period in ticks (Tick)
system.cpu1.mmu.dtb.rdAccesses                 145097                       # TLB accesses on read requests (Count)
system.cpu1.mmu.dtb.wrAccesses                  15030                       # TLB accesses on write requests (Count)
system.cpu1.mmu.dtb.rdMisses                      154                       # TLB misses on read requests (Count)
system.cpu1.mmu.dtb.wrMisses                        2                       # TLB misses on write requests (Count)
system.cpu1.mmu.dtb.walker.power_state.pwrStateResidencyTicks::UNDEFINED 140040530000                       # Cumulative time (in ticks) in various power states (Tick)
system.cpu1.mmu.itb.rdAccesses                      0                       # TLB accesses on read requests (Count)
system.cpu1.mmu.itb.wrAccesses                 460903                       # TLB accesses on write requests (Count)
system.cpu1.mmu.itb.rdMisses                        0                       # TLB misses on read requests (Count)
system.cpu1.mmu.itb.wrMisses                      125                       # TLB misses on write requests (Count)
system.cpu1.mmu.itb.walker.power_state.pwrStateResidencyTicks::UNDEFINED 140040530000                       # Cumulative time (in ticks) in various power states (Tick)
system.cpu1.power_state.numTransitions              5                       # Number of power state transitions (Count)
system.cpu1.power_state.ticksClkGated::samples            3                       # Distribution of time spent in the clock gated state (Tick)
system.cpu1.power_state.ticksClkGated::mean 22530830666.666668                       # Distribution of time spent in the clock gated state (Tick)
system.cpu1.power_state.ticksClkGated::stdev 20316434868.614559                       # Distribution of time spent in the clock gated state (Tick)
system.cpu1.power_state.ticksClkGated::1000-5e+10            3    100.00%    100.00% # Distribution of time spent in the clock gated state (Tick)
system.cpu1.power_state.ticksClkGated::min_value    957388000                       # Distribution of time spent in the clock gated state (Tick)
system.cpu1.power_state.ticksClkGated::max_value  41298620500                       # Distribution of time spent in the clock gated state (Tick)
system.cpu1.power_state.ticksClkGated::total            3                       # Distribution of time spent in the clock gated state (Tick)
system.cpu1.power_state.pwrStateResidencyTicks::ON  72448038000                       # Cumulative time (in ticks) in various power states (Tick)
system.cpu1.power_state.pwrStateResidencyTicks::CLK_GATED  67592492000                       # Cumulative time (in ticks) in various power states (Tick)
system.cpu1.thread_0.numInsts                       0                       # Number of Instructions committed (Count)
system.cpu1.thread_0.numOps                         0                       # Number of Ops committed (Count)
system.cpu1.thread_0.numMemRefs                     0                       # Number of Memory References (Count)
system.cpu2.numCycles                       206694231                       # Number of cpu cycles simulated (Cycle)
system.cpu2.cpi                            156.898553                       # CPI: cycles per instruction (core level) ((Cycle/Count))
system.cpu2.ipc                              0.006374                       # IPC: instructions per cycle (core level) ((Count/Cycle))
system.cpu2.numWorkItemsStarted                     0                       # Number of work items this cpu started (Count)
system.cpu2.numWorkItemsCompleted                   0                       # Number of work items this cpu completed (Count)
system.cpu2.clk_domain.clock                      500                       # Clock period in ticks (Tick)
system.cpu2.clk_domain.voltage_domain.voltage            1                       # Voltage in Volts (Volt)
system.cpu2.commitStats0.numInsts             1317375                       # Number of instructions committed (thread level) (Count)
system.cpu2.commitStats0.numOps               2485620                       # Number of ops (including micro ops) committed (thread level) (Count)
system.cpu2.commitStats0.numInstsNotNOP             0                       # Number of instructions committed excluding NOPs or prefetches (Count)
system.cpu2.commitStats0.numOpsNotNOP               0                       # Number of Ops (including micro ops) Simulated (Count)
system.cpu2.commitStats0.cpi               156.898553                       # CPI: cycles per instruction (thread level) ((Cycle/Count))
system.cpu2.commitStats0.ipc                 0.006374                       # IPC: instructions per cycle (thread level) ((Count/Cycle))
system.cpu2.commitStats0.numMemRefs                 0                       # Number of memory references committed (Count)
system.cpu2.commitStats0.numFpInsts            103824                       # Number of float instructions (Count)
system.cpu2.commitStats0.numIntInsts          2361796                       # Number of integer instructions (Count)
system.cpu2.commitStats0.numLoadInsts          320803                       # Number of load instructions (Count)
system.cpu2.commitStats0.numStoreInsts         228176                       # Number of store instructions (Count)
system.cpu2.commitStats0.numVecInsts                0                       # Number of vector instructions (Count)
system.cpu2.commitStats0.committedInstType::No_OpClass        35994      1.45%      1.45% # Class of committed instruction. (Count)
system.cpu2.commitStats0.committedInstType::IntAlu      1840838     74.06%     75.51% # Class of committed instruction. (Count)
system.cpu2.commitStats0.committedInstType::IntMult         1053      0.04%     75.55% # Class of committed instruction. (Count)
system.cpu2.commitStats0.committedInstType::IntDiv          645      0.03%     75.58% # Class of committed instruction. (Count)
system.cpu2.commitStats0.committedInstType::FloatAdd         9319      0.37%     75.95% # Class of committed instruction. (Count)
system.cpu2.commitStats0.committedInstType::FloatCmp            3      0.00%     75.95% # Class of committed instruction. (Count)
system.cpu2.commitStats0.committedInstType::FloatCvt          322      0.01%     75.96% # Class of committed instruction. (Count)
system.cpu2.commitStats0.committedInstType::FloatMult            1      0.00%     75.96% # Class of committed instruction. (Count)
system.cpu2.commitStats0.committedInstType::FloatMultAcc            0      0.00%     75.96% # Class of committed instruction. (Count)
system.cpu2.commitStats0.committedInstType::FloatDiv            1      0.00%     75.96% # Class of committed instruction. (Count)
system.cpu2.commitStats0.committedInstType::FloatMisc            0      0.00%     75.96% # Class of committed instruction. (Count)
system.cpu2.commitStats0.committedInstType::FloatSqrt            0      0.00%     75.96% # Class of committed instruction. (Count)
system.cpu2.commitStats0.committedInstType::SimdAdd          322      0.01%     75.98% # Class of committed instruction. (Count)
system.cpu2.commitStats0.committedInstType::SimdAddAcc            0      0.00%     75.98% # Class of committed instruction. (Count)
system.cpu2.commitStats0.committedInstType::SimdAlu        16948      0.68%     76.66% # Class of committed instruction. (Count)
system.cpu2.commitStats0.committedInstType::SimdCmp           12      0.00%     76.66% # Class of committed instruction. (Count)
system.cpu2.commitStats0.committedInstType::SimdCvt          366      0.01%     76.67% # Class of committed instruction. (Count)
system.cpu2.commitStats0.committedInstType::SimdMisc         5884      0.24%     76.91% # Class of committed instruction. (Count)
system.cpu2.commitStats0.committedInstType::SimdMult            0      0.00%     76.91% # Class of committed instruction. (Count)
system.cpu2.commitStats0.committedInstType::SimdMultAcc            0      0.00%     76.91% # Class of committed instruction. (Count)
system.cpu2.commitStats0.committedInstType::SimdMatMultAcc            0      0.00%     76.91% # Class of committed instruction. (Count)
system.cpu2.commitStats0.committedInstType::SimdShift          191      0.01%     76.92% # Class of committed instruction. (Count)
system.cpu2.commitStats0.committedInstType::SimdShiftAcc            0      0.00%     76.92% # Class of committed instruction. (Count)
system.cpu2.commitStats0.committedInstType::SimdDiv            0      0.00%     76.92% # Class of committed instruction. (Count)
system.cpu2.commitStats0.committedInstType::SimdSqrt            0      0.00%     76.92% # Class of committed instruction. (Count)
system.cpu2.commitStats0.committedInstType::SimdFloatAdd         5104      0.21%     77.12% # Class of committed instruction. (Count)
system.cpu2.commitStats0.committedInstType::SimdFloatAlu            0      0.00%     77.12% # Class of committed instruction. (Count)
system.cpu2.commitStats0.committedInstType::SimdFloatCmp            0      0.00%     77.12% # Class of committed instruction. (Count)
system.cpu2.commitStats0.committedInstType::SimdFloatCvt        14528      0.58%     77.71% # Class of committed instruction. (Count)
system.cpu2.commitStats0.committedInstType::SimdFloatDiv            4      0.00%     77.71% # Class of committed instruction. (Count)
system.cpu2.commitStats0.committedInstType::SimdFloatMisc            0      0.00%     77.71% # Class of committed instruction. (Count)
system.cpu2.commitStats0.committedInstType::SimdFloatMult         5106      0.21%     77.91% # Class of committed instruction. (Count)
system.cpu2.commitStats0.committedInstType::SimdFloatMultAcc            0      0.00%     77.91% # Class of committed instruction. (Count)
system.cpu2.commitStats0.committedInstType::SimdFloatMatMultAcc            0      0.00%     77.91% # Class of committed instruction. (Count)
system.cpu2.commitStats0.committedInstType::SimdFloatSqrt            0      0.00%     77.91% # Class of committed instruction. (Count)
system.cpu2.commitStats0.committedInstType::SimdReduceAdd            0      0.00%     77.91% # Class of committed instruction. (Count)
system.cpu2.commitStats0.committedInstType::SimdReduceAlu            0      0.00%     77.91% # Class of committed instruction. (Count)
system.cpu2.commitStats0.committedInstType::SimdReduceCmp            0      0.00%     77.91% # Class of committed instruction. (Count)
system.cpu2.commitStats0.committedInstType::SimdFloatReduceAdd            0      0.00%     77.91% # Class of committed instruction. (Count)
system.cpu2.commitStats0.committedInstType::SimdFloatReduceCmp            0      0.00%     77.91% # Class of committed instruction. (Count)
system.cpu2.commitStats0.committedInstType::SimdAes            0      0.00%     77.91% # Class of committed instruction. (Count)
system.cpu2.commitStats0.committedInstType::SimdAesMix            0      0.00%     77.91% # Class of committed instruction. (Count)
system.cpu2.commitStats0.committedInstType::SimdSha1Hash            0      0.00%     77.91% # Class of committed instruction. (Count)
system.cpu2.commitStats0.committedInstType::SimdSha1Hash2            0      0.00%     77.91% # Class of committed instruction. (Count)
system.cpu2.commitStats0.committedInstType::SimdSha256Hash            0      0.00%     77.91% # Class of committed instruction. (Count)
system.cpu2.commitStats0.committedInstType::SimdSha256Hash2            0      0.00%     77.91% # Class of committed instruction. (Count)
system.cpu2.commitStats0.committedInstType::SimdShaSigma2            0      0.00%     77.91% # Class of committed instruction. (Count)
system.cpu2.commitStats0.committedInstType::SimdShaSigma3            0      0.00%     77.91% # Class of committed instruction. (Count)
system.cpu2.commitStats0.committedInstType::SimdPredAlu            0      0.00%     77.91% # Class of committed instruction. (Count)
system.cpu2.commitStats0.committedInstType::Matrix            0      0.00%     77.91% # Class of committed instruction. (Count)
system.cpu2.commitStats0.committedInstType::MatrixMov            0      0.00%     77.91% # Class of committed instruction. (Count)
system.cpu2.commitStats0.committedInstType::MatrixOP            0      0.00%     77.91% # Class of committed instruction. (Count)
system.cpu2.commitStats0.committedInstType::MemRead       296945     11.95%     89.86% # Class of committed instruction. (Count)
system.cpu2.commitStats0.committedInstType::MemWrite       206856      8.32%     98.18% # Class of committed instruction. (Count)
system.cpu2.commitStats0.committedInstType::FloatMemRead        23858      0.96%     99.14% # Class of committed instruction. (Count)
system.cpu2.commitStats0.committedInstType::FloatMemWrite        21320      0.86%    100.00% # Class of committed instruction. (Count)
system.cpu2.commitStats0.committedInstType::IprAccess            0      0.00%    100.00% # Class of committed instruction. (Count)
system.cpu2.commitStats0.committedInstType::InstPrefetch            0      0.00%    100.00% # Class of committed instruction. (Count)
system.cpu2.commitStats0.committedInstType::VectorUnitStrideLoad            0      0.00%    100.00% # Class of committed instruction. (Count)
system.cpu2.commitStats0.committedInstType::VectorUnitStrideStore            0      0.00%    100.00% # Class of committed instruction. (Count)
system.cpu2.commitStats0.committedInstType::VectorUnitStrideMaskLoad            0      0.00%    100.00% # Class of committed instruction. (Count)
system.cpu2.commitStats0.committedInstType::VectorUnitStrideMaskStore            0      0.00%    100.00% # Class of committed instruction. (Count)
system.cpu2.commitStats0.committedInstType::VectorStridedLoad            0      0.00%    100.00% # Class of committed instruction. (Count)
system.cpu2.commitStats0.committedInstType::VectorStridedStore            0      0.00%    100.00% # Class of committed instruction. (Count)
system.cpu2.commitStats0.committedInstType::VectorIndexedLoad            0      0.00%    100.00% # Class of committed instruction. (Count)
system.cpu2.commitStats0.committedInstType::VectorIndexedStore            0      0.00%    100.00% # Class of committed instruction. (Count)
system.cpu2.commitStats0.committedInstType::VectorUnitStrideFaultOnlyFirstLoad            0      0.00%    100.00% # Class of committed instruction. (Count)
system.cpu2.commitStats0.committedInstType::VectorWholeRegisterLoad            0      0.00%    100.00% # Class of committed instruction. (Count)
system.cpu2.commitStats0.committedInstType::VectorWholeRegisterStore            0      0.00%    100.00% # Class of committed instruction. (Count)
system.cpu2.commitStats0.committedInstType::VectorIntegerArith            0      0.00%    100.00% # Class of committed instruction. (Count)
system.cpu2.commitStats0.committedInstType::VectorFloatArith            0      0.00%    100.00% # Class of committed instruction. (Count)
system.cpu2.commitStats0.committedInstType::VectorFloatConvert            0      0.00%    100.00% # Class of committed instruction. (Count)
system.cpu2.commitStats0.committedInstType::VectorIntegerReduce            0      0.00%    100.00% # Class of committed instruction. (Count)
system.cpu2.commitStats0.committedInstType::VectorFloatReduce            0      0.00%    100.00% # Class of committed instruction. (Count)
system.cpu2.commitStats0.committedInstType::VectorMisc            0      0.00%    100.00% # Class of committed instruction. (Count)
system.cpu2.commitStats0.committedInstType::VectorIntegerExtension            0      0.00%    100.00% # Class of committed instruction. (Count)
system.cpu2.commitStats0.committedInstType::VectorConfig            0      0.00%    100.00% # Class of committed instruction. (Count)
system.cpu2.commitStats0.committedInstType::total      2485620                       # Class of committed instruction. (Count)
system.cpu2.commitStats0.committedControl::IsControl       271613                       # Class of control type instructions committed (Count)
system.cpu2.commitStats0.committedControl::IsDirectControl       233110                       # Class of control type instructions committed (Count)
system.cpu2.commitStats0.committedControl::IsIndirectControl        38474                       # Class of control type instructions committed (Count)
system.cpu2.commitStats0.committedControl::IsCondControl       191062                       # Class of control type instructions committed (Count)
system.cpu2.commitStats0.committedControl::IsUncondControl        80522                       # Class of control type instructions committed (Count)
system.cpu2.commitStats0.committedControl::IsCall        24632                       # Class of control type instructions committed (Count)
system.cpu2.commitStats0.committedControl::IsReturn        24622                       # Class of control type instructions committed (Count)
system.cpu2.exec_context.thread_0.numMatAluAccesses            0                       # Number of matrix alu accesses (Count)
system.cpu2.exec_context.thread_0.numCallsReturns        49254                       # Number of times a function call or return occured (Count)
system.cpu2.exec_context.thread_0.numMatInsts            0                       # Number of matrix instructions (Count)
system.cpu2.exec_context.thread_0.numIdleCycles 201137772.667642                       # Number of idle cycles (Cycle)
system.cpu2.exec_context.thread_0.numBusyCycles 5556458.332358                       # Number of busy cycles (Cycle)
system.cpu2.exec_context.thread_0.notIdleFraction     0.026883                       # Percentage of non-idle cycles (Ratio)
system.cpu2.exec_context.thread_0.idleFraction     0.973117                       # Percentage of idle cycles (Ratio)
system.cpu2.executeStats0.numInsts                  0                       # Number of executed instructions (Count)
system.cpu2.executeStats0.numNop                    0                       # Number of nop insts executed (Count)
system.cpu2.executeStats0.numBranches               0                       # Number of branches executed (Count)
system.cpu2.executeStats0.numLoadInsts              0                       # Number of load instructions executed (Count)
system.cpu2.executeStats0.numStoreInsts        548979                       # Number of stores executed (Count)
system.cpu2.executeStats0.instRate                  0                       # Inst execution rate ((Count/Cycle))
system.cpu2.executeStats0.numFpAluAccesses       103824                       # Number of float alu accesses (Count)
system.cpu2.executeStats0.numFpRegReads        124780                       # Number of times the floating registers were read (Count)
system.cpu2.executeStats0.numFpRegWrites        72552                       # Number of times the floating registers were written (Count)
system.cpu2.executeStats0.numIntAluAccesses      2361796                       # Number of integer alu accesses (Count)
system.cpu2.executeStats0.numIntRegReads      2935476                       # Number of times the integer registers were read (Count)
system.cpu2.executeStats0.numIntRegWrites      1658356                       # Number of times the integer registers were written (Count)
system.cpu2.executeStats0.numMemRefs           548979                       # Number of memory refs (Count)
system.cpu2.executeStats0.numMiscRegReads      1120596                       # Number of times the Misc registers were read (Count)
system.cpu2.executeStats0.numMiscRegWrites          212                       # Number of times the Misc registers were written (Count)
system.cpu2.executeStats0.numVecAluAccesses            0                       # Number of vector alu accesses (Count)
system.cpu2.executeStats0.numDiscardedOps            0                       # Number of ops (including micro ops) which were discarded before commit (Count)
system.cpu2.fetchStats0.numInsts              1317375                       # Number of instructions fetched (thread level) (Count)
system.cpu2.fetchStats0.numOps                2485620                       # Number of ops (including micro ops) fetched (thread level) (Count)
system.cpu2.fetchStats0.fetchRate            0.006374                       # Number of inst fetches per cycle ((Count/Cycle))
system.cpu2.fetchStats0.numBranches            271613                       # Number of branches fetched (Count)
system.cpu2.fetchStats0.branchRate           0.001314                       # Number of branch fetches per cycle (Ratio)
system.cpu2.fetchStats0.numFetchSuspends            0                       # Number of times Execute suspended instruction fetching (Count)
system.cpu2.interrupts.clk_domain.clock          8000                       # Clock period in ticks (Tick)
system.cpu2.mmu.dtb.rdAccesses                 320819                       # TLB accesses on read requests (Count)
system.cpu2.mmu.dtb.wrAccesses                 228439                       # TLB accesses on write requests (Count)
system.cpu2.mmu.dtb.rdMisses                      798                       # TLB misses on read requests (Count)
system.cpu2.mmu.dtb.wrMisses                      150                       # TLB misses on write requests (Count)
system.cpu2.mmu.dtb.walker.power_state.pwrStateResidencyTicks::UNDEFINED 140040530000                       # Cumulative time (in ticks) in various power states (Tick)
system.cpu2.mmu.itb.rdAccesses                      0                       # TLB accesses on read requests (Count)
system.cpu2.mmu.itb.wrAccesses                1786774                       # TLB accesses on write requests (Count)
system.cpu2.mmu.itb.rdMisses                        0                       # TLB misses on read requests (Count)
system.cpu2.mmu.itb.wrMisses                      312                       # TLB misses on write requests (Count)
system.cpu2.mmu.itb.walker.power_state.pwrStateResidencyTicks::UNDEFINED 140040530000                       # Cumulative time (in ticks) in various power states (Tick)
system.cpu2.power_state.numTransitions              5                       # Number of power state transitions (Count)
system.cpu2.power_state.ticksClkGated::samples            3                       # Distribution of time spent in the clock gated state (Tick)
system.cpu2.power_state.ticksClkGated::mean 12729121666.666666                       # Distribution of time spent in the clock gated state (Tick)
system.cpu2.power_state.ticksClkGated::stdev 20766186492.147881                       # Distribution of time spent in the clock gated state (Tick)
system.cpu2.power_state.ticksClkGated::1000-5e+10            3    100.00%    100.00% # Distribution of time spent in the clock gated state (Tick)
system.cpu2.power_state.ticksClkGated::min_value     26556500                       # Distribution of time spent in the clock gated state (Tick)
system.cpu2.power_state.ticksClkGated::max_value  36693414500                       # Distribution of time spent in the clock gated state (Tick)
system.cpu2.power_state.ticksClkGated::total            3                       # Distribution of time spent in the clock gated state (Tick)
system.cpu2.power_state.pwrStateResidencyTicks::ON 101853165000                       # Cumulative time (in ticks) in various power states (Tick)
system.cpu2.power_state.pwrStateResidencyTicks::CLK_GATED  38187365000                       # Cumulative time (in ticks) in various power states (Tick)
system.cpu2.thread_0.numInsts                       0                       # Number of Instructions committed (Count)
system.cpu2.thread_0.numOps                         0                       # Number of Ops committed (Count)
system.cpu2.thread_0.numMemRefs                     0                       # Number of Memory References (Count)
system.cpu3.allLatencyDist::bucket_size         10000                       # delay distribution for all (Unspecified)
system.cpu3.allLatencyDist::min_bucket              0                       # delay distribution for all (Unspecified)
system.cpu3.allLatencyDist::max_bucket        1600000                       # delay distribution for all (Unspecified)
system.cpu3.allLatencyDist::samples             31250                       # delay distribution for all (Unspecified)
system.cpu3.allLatencyDist::mean         2031864.480000                       # delay distribution for all (Unspecified)
system.cpu3.allLatencyDist::stdev        1454803.397631                       # delay distribution for all (Unspecified)
system.cpu3.allLatencyDist::underflows              0      0.00%      0.00% # delay distribution for all (Unspecified)
system.cpu3.allLatencyDist               |           0      0.00%      0.00% |           0      0.00%      0.00% |           0      0.00%      0.00% |           0      0.00%      0.00% |           0      0.00%      0.00% |           0      0.00%      0.00% |           0      0.00%      0.00% |           0      0.00%      0.00% |           0      0.00%      0.00% |           0      0.00%      0.00% |           0      0.00%      0.00% |           0      0.00%      0.00% |           0      0.00%      0.00% |           0      0.00%      0.00% |           0      0.00%      0.00% |           0      0.00%      0.00% |           0      0.00%      0.00% |           0      0.00%      0.00% |           0      0.00%      0.00% |           0      0.00%      0.00% |           0      0.00%      0.00% |           0      0.00%      0.00% |           0      0.00%      0.00% |           0      0.00%      0.00% |           0      0.00%      0.00% |           0      0.00%      0.00% |         113      0.36%      0.36% |          48      0.15%      0.52% |         375      1.20%      1.72% |          60      0.19%      1.91% |         365      1.17%      3.08% |          63      0.20%      3.28% |         364      1.16%      4.44% |          85      0.27%      4.71% |         398      1.27%      5.99% |          86      0.28%      6.26% |          92      0.29%      6.56% |         202      0.65%      7.20% |          84      0.27%      7.47% |         528      1.69%      9.16% |         350      1.12%     10.28% |         369      1.18%     11.46% |         401      1.28%     12.75% |          92      0.29%     13.04% |         396      1.27%     14.31% |         214      0.68%     14.99% |         191      0.61%     15.60% |         203      0.65%     16.25% |          77      0.25%     16.50% |         165      0.53%     17.03% |          65      0.21%     17.24% |          84      0.27%     17.50% |          60      0.19%     17.70% |          67      0.21%     17.91% |          72      0.23%     18.14% |          73      0.23%     18.37% |          64      0.20%     18.58% |          65      0.21%     18.79% |          72      0.23%     19.02% |          89      0.28%     19.30% |          72      0.23%     19.53% |          68      0.22%     19.75% |          70      0.22%     19.97% |          37      0.12%     20.09% |          56      0.18%     20.27% |          51      0.16%     20.44% |          58      0.19%     20.62% |          55      0.18%     20.80% |          67      0.21%     21.01% |          63      0.20%     21.21% |          56      0.18%     21.39% |          54      0.17%     21.56% |          67      0.21%     21.78% |          60      0.19%     21.97% |          44      0.14%     22.11% |          36      0.12%     22.23% |          41      0.13%     22.36% |          33      0.11%     22.46% |          39      0.12%     22.59% |          34      0.11%     22.70% |          40      0.13%     22.83% |          33      0.11%     22.93% |          41      0.13%     23.06% |          22      0.07%     23.13% |          38      0.12%     23.25% |          30      0.10%     23.35% |          31      0.10%     23.45% |          26      0.08%     23.53% |          33      0.11%     23.64% |          31      0.10%     23.74% |          27      0.09%     23.82% |          27      0.09%     23.91% |          33      0.11%     24.02% |          24      0.08%     24.09% |          24      0.08%     24.17% |          22      0.07%     24.24% |          23      0.07%     24.31% |          17      0.05%     24.37% |          30      0.10%     24.46% |          27      0.09%     24.55% |          21      0.07%     24.62% |          17      0.05%     24.67% |          14      0.04%     24.72% |          22      0.07%     24.79% |          17      0.05%     24.84% |          19      0.06%     24.90% |          15      0.05%     24.95% |           7      0.02%     24.97% |          11      0.04%     25.01% |          13      0.04%     25.05% |          12      0.04%     25.09% |          14      0.04%     25.13% |           9      0.03%     25.16% |           8      0.03%     25.19% |          14      0.04%     25.23% |          16      0.05%     25.28% |          15      0.05%     25.33% |          18      0.06%     25.39% |          19      0.06%     25.45% |          20      0.06%     25.51% |          12      0.04%     25.55% |          21      0.07%     25.62% |          35      0.11%     25.73% |          91      0.29%     26.02% |          47      0.15%     26.17% |          85      0.27%     26.44% |          45      0.14%     26.59% |          74      0.24%     26.83% |          72      0.23%     27.06% |         201      0.64%     27.70% |         168      0.54%     28.24% |         215      0.69%     28.92% |         813      2.60%     31.53% |         378      1.21%     32.74% |         812      2.60%     35.33% |         210      0.67%     36.01% |        1064      3.40%     39.41% |         170      0.54%     39.96% |         589      1.88%     41.84% |         299      0.96%     42.80% |         339      1.08%     43.88% |         579      1.85%     45.73% |         208      0.67%     46.40% |         348      1.11%     47.51% |         263      0.84%     48.36% |         354      1.13%     49.49% |         221      0.71%     50.20% |         182      0.58%     50.78% |         118      0.38%     51.16% |          71      0.23%     51.38% |         124      0.40%     51.78% |         103      0.33%     52.11% |          90      0.29%     52.40% |         119      0.38%     52.78% |          71      0.23%     53.00% |          69      0.22%     53.23% |          73      0.23%     53.46% |          60      0.19%     53.65% |          49      0.16%     53.81% |          29      0.09%     53.90% |           7      0.02%     53.92% # delay distribution for all (Unspecified)
system.cpu3.allLatencyDist::overflows           14399     46.08%    100.00% # delay distribution for all (Unspecified)
system.cpu3.allLatencyDist::min_value          263000                       # delay distribution for all (Unspecified)
system.cpu3.allLatencyDist::max_value        10958000                       # delay distribution for all (Unspecified)
system.cpu3.allLatencyDist::total               31250                       # delay distribution for all (Unspecified)
system.cpu3.loadLatencyDist::bucket_size        10000                       # delay distribution for loads (Unspecified)
system.cpu3.loadLatencyDist::min_bucket             0                       # delay distribution for loads (Unspecified)
system.cpu3.loadLatencyDist::max_bucket       1600000                       # delay distribution for loads (Unspecified)
system.cpu3.loadLatencyDist::samples            15625                       # delay distribution for loads (Unspecified)
system.cpu3.loadLatencyDist::mean        2901572.480000                       # delay distribution for loads (Unspecified)
system.cpu3.loadLatencyDist::stdev       1518999.379008                       # delay distribution for loads (Unspecified)
system.cpu3.loadLatencyDist::underflows             0      0.00%      0.00% # delay distribution for loads (Unspecified)
system.cpu3.loadLatencyDist              |           0      0.00%      0.00% |           0      0.00%      0.00% |           0      0.00%      0.00% |           0      0.00%      0.00% |           0      0.00%      0.00% |           0      0.00%      0.00% |           0      0.00%      0.00% |           0      0.00%      0.00% |           0      0.00%      0.00% |           0      0.00%      0.00% |           0      0.00%      0.00% |           0      0.00%      0.00% |           0      0.00%      0.00% |           0      0.00%      0.00% |           0      0.00%      0.00% |           0      0.00%      0.00% |           0      0.00%      0.00% |           0      0.00%      0.00% |           0      0.00%      0.00% |           0      0.00%      0.00% |           0      0.00%      0.00% |           0      0.00%      0.00% |           0      0.00%      0.00% |           0      0.00%      0.00% |           0      0.00%      0.00% |           0      0.00%      0.00% |           0      0.00%      0.00% |           0      0.00%      0.00% |           0      0.00%      0.00% |           0      0.00%      0.00% |           0      0.00%      0.00% |           0      0.00%      0.00% |           0      0.00%      0.00% |           0      0.00%      0.00% |           0      0.00%      0.00% |           0      0.00%      0.00% |           0      0.00%      0.00% |         112      0.72%      0.72% |          10      0.06%      0.78% |         151      0.97%      1.75% |         125      0.80%      2.55% |         143      0.92%      3.46% |          21      0.13%      3.60% |          31      0.20%      3.80% |          15      0.10%      3.89% |         133      0.85%      4.74% |         114      0.73%      5.47% |         121      0.77%      6.25% |          19      0.12%      6.37% |         117      0.75%      7.12% |          10      0.06%      7.18% |           8      0.05%      7.23% |           6      0.04%      7.27% |           9      0.06%      7.33% |          13      0.08%      7.41% |          18      0.12%      7.53% |          18      0.12%      7.64% |          24      0.15%      7.80% |          24      0.15%      7.95% |          30      0.19%      8.14% |          25      0.16%      8.30% |          20      0.13%      8.43% |          20      0.13%      8.56% |          10      0.06%      8.62% |           6      0.04%      8.66% |           4      0.03%      8.68% |          10      0.06%      8.75% |           3      0.02%      8.77% |           8      0.05%      8.82% |          10      0.06%      8.88% |           7      0.04%      8.93% |           7      0.04%      8.97% |          12      0.08%      9.05% |          10      0.06%      9.11% |          10      0.06%      9.18% |           5      0.03%      9.21% |          11      0.07%      9.28% |           4      0.03%      9.31% |           6      0.04%      9.34% |           9      0.06%      9.40% |           5      0.03%      9.43% |           9      0.06%      9.49% |          11      0.07%      9.56% |           2      0.01%      9.57% |          12      0.08%      9.65% |           5      0.03%      9.68% |          10      0.06%      9.75% |           6      0.04%      9.79% |          11      0.07%      9.86% |          15      0.10%      9.95% |           9      0.06%     10.01% |          10      0.06%     10.07% |          12      0.08%     10.15% |          10      0.06%     10.21% |           9      0.06%     10.27% |           6      0.04%     10.31% |           7      0.04%     10.36% |           7      0.04%     10.40% |           7      0.04%     10.44% |           7      0.04%     10.49% |           6      0.04%     10.53% |           3      0.02%     10.55% |           3      0.02%     10.57% |           6      0.04%     10.60% |           2      0.01%     10.62% |           8      0.05%     10.67% |           7      0.04%     10.71% |           3      0.02%     10.73% |           0      0.00%     10.73% |           1      0.01%     10.74% |           3      0.02%     10.76% |           3      0.02%     10.78% |           1      0.01%     10.78% |           0      0.00%     10.78% |           4      0.03%     10.81% |           6      0.04%     10.85% |           3      0.02%     10.87% |           3      0.02%     10.89% |           1      0.01%     10.89% |           4      0.03%     10.92% |           0      0.00%     10.92% |           2      0.01%     10.93% |           6      0.04%     10.97% |           5      0.03%     11.00% |           3      0.02%     11.02% |           1      0.01%     11.03% |           1      0.01%     11.03% |           2      0.01%     11.05% |           2      0.01%     11.06% |           4      0.03%     11.08% |           0      0.00%     11.08% |           4      0.03%     11.11% |           1      0.01%     11.12% |          14      0.09%     11.21% |           9      0.06%     11.26% |           8      0.05%     11.32% |          93      0.60%     11.91% |          53      0.34%     12.25% |          57      0.36%     12.61% |         104      0.67%     13.28% |          88      0.56%     13.84% |         188      1.20%     15.05% |         172      1.10%     16.15% |         167      1.07%     17.22% |         226      1.45%     18.66% |         182      1.16%     19.83% |         116      0.74%     20.57% |          79      0.51%     21.08% |          95      0.61%     21.68% |          50      0.32%     22.00% |         104      0.67%     22.67% |          87      0.56%     23.23% |          74      0.47%     23.70% |         103      0.66%     24.36% |          59      0.38%     24.74% |          54      0.35%     25.08% |          61      0.39%     25.47% |          48      0.31%     25.78% |          36      0.23%     26.01% |          21      0.13%     26.14% |           5      0.03%     26.18% # delay distribution for loads (Unspecified)
system.cpu3.loadLatencyDist::overflows          11535     73.82%    100.00% # delay distribution for loads (Unspecified)
system.cpu3.loadLatencyDist::min_value         377000                       # delay distribution for loads (Unspecified)
system.cpu3.loadLatencyDist::max_value       10958000                       # delay distribution for loads (Unspecified)
system.cpu3.loadLatencyDist::total              15625                       # delay distribution for loads (Unspecified)
system.cpu3.storeLatencyDist::bucket_size        10000                       # delay distribution for stores (Unspecified)
system.cpu3.storeLatencyDist::min_bucket            0                       # delay distribution for stores (Unspecified)
[...]
system.cpu3.cacheBlockRoundTrip7::overflows            0                       # Coalsr-to-coalsr time for the Nth cache block in an inst (Unspecified)
system.cpu3.cacheBlockRoundTrip7::min_value            0                       # Coalsr-to-coalsr time for the Nth cache block in an inst (Unspecified)
system.cpu3.cacheBlockRoundTrip7::max_value            0                       # Coalsr-to-coalsr time for the Nth cache block in an inst (Unspecified)
system.cpu3.cacheBlockRoundTrip7::total             0                       # Coalsr-to-coalsr time for the Nth cache block in an inst (Unspecified)
system.cpu3.cacheBlockRoundTrip8::bucket_size        10000                       # Coalsr-to-coalsr time for the Nth cache block in an inst (Unspecified)
system.cpu3.cacheBlockRoundTrip8::min_bucket            0                       # Coalsr-to-coalsr time for the Nth cache block in an inst (Unspecified)
system.cpu3.cacheBlockRoundTrip8::max_bucket      1600000                       # Coalsr-to-coalsr time for the Nth cache block in an inst (Unspecified)
system.cpu3.cacheBlockRoundTrip8::samples            0                       # Coalsr-to-coalsr time for the Nth cache block in an inst (Unspecified)
system.cpu3.cacheBlockRoundTrip8::mean            nan                       # Coalsr-to-coalsr time for the Nth cache block in an inst (Unspecified)
system.cpu3.cacheBlockRoundTrip8::stdev           nan                       # Coalsr-to-coalsr time for the Nth cache block in an inst (Unspecified)
system.cpu3.cacheBlockRoundTrip8::underflows            0                       # Coalsr-to-coalsr time for the Nth cache block in an inst (Unspecified)
system.cpu3.cacheBlockRoundTrip8         |           0                       |           0                       |           0                       |           0                       |           0                       |           0                       |           0                       |           0                       |           0                       |           0                       |           0                       |           0                       |           0                       |           0                       |           0                       |           0                       |           0                       |           0                       |           0                       |           0                       |           0                       |           0                       |           0                       |           0                       |           0                       |           0                       |           0                       |           0                       |           0                       |           0                       |           0                       |           0                       |           0                       |           0                       |           0                       |           0                       |           0                       |           0                       |           0                       |           0                       |           0                       |           0                       |           0                       |           0                       |           0                       |           0                       |           0                       |           0                       |           0                       |           0                       |           0                       |           0                       |           0                       |           0                       |           0                       |           0                       |           0                       |           0                       |           0                       |           0                       |           0                       |           0                       |           0                       |           0                       |           0                       |           0                       |           0                       |           0                       |           0                       |           0                       |           0                       |           0                       |           0                       |           0                       |           0                       |           0                       |           0                       |           0                       |           0                       |           0                       |           0                       |           0                       |           0                       |           0                       |           0                       |           0                       |           0                       |           0                       |           0                       |           0                       |           0                       |           0                       |           0                       |           0                       |           0                       |           0                       |           0                       |           0                       |           0                       |           0                       |           0                       |           0                       |           0                       |           0                       |           0                       |           0                       |           0                       |           0                       |           0                       |           0                       |           0                       |           0                       |           0                       |           0                       |           0                       |           0                       |           0                       |           0                       |           0                       |           0                       |           0                       |           0                       |           0                       |           0                       |           0                       |           0                       |           0                       |           0                       |           0                       |           0                       |           0                       |           0                       |           0                       |           0                       |           0                       |           0                       |           0                       |           0                       |           0                       |           0                       |           0                       |           0                       |           0                       |           0                       |           0                       |           0                       |           0                       |           0                       |           0                       |           0                       |           0                       |           0                       |           0                       |           0                       |           0                       |           0                       |           0                       |           0                       |           0                       |           0                       |           0                       # Coalsr-to-coalsr time for the Nth cache block in an inst (Unspecified)
system.cpu3.cacheBlockRoundTrip8::overflows            0                       # Coalsr-to-coalsr time for the Nth cache block in an inst (Unspecified)
system.cpu3.cacheBlockRoundTrip8::min_value            0                       # Coalsr-to-coalsr time for the Nth cache block in an inst (Unspecified)
system.cpu3.cacheBlockRoundTrip8::max_value            0                       # Coalsr-to-coalsr time for the Nth cache block in an inst (Unspecified)
system.cpu3.cacheBlockRoundTrip8::total             0                       # Coalsr-to-coalsr time for the Nth cache block in an inst (Unspecified)
system.cpu3.cacheBlockRoundTrip9::bucket_size        10000                       # Coalsr-to-coalsr time for the Nth cache block in an inst (Unspecified)
system.cpu3.cacheBlockRoundTrip9::min_bucket            0                       # Coalsr-to-coalsr time for the Nth cache block in an inst (Unspecified)
system.cpu3.cacheBlockRoundTrip9::max_bucket      1600000                       # Coalsr-to-coalsr time for the Nth cache block in an inst (Unspecified)
system.cpu3.cacheBlockRoundTrip9::samples            0                       # Coalsr-to-coalsr time for the Nth cache block in an inst (Unspecified)
system.cpu3.cacheBlockRoundTrip9::mean            nan                       # Coalsr-to-coalsr time for the Nth cache block in an inst (Unspecified)
system.cpu3.cacheBlockRoundTrip9::stdev           nan                       # Coalsr-to-coalsr time for the Nth cache block in an inst (Unspecified)
system.cpu3.cacheBlockRoundTrip9::underflows            0                       # Coalsr-to-coalsr time for the Nth cache block in an inst (Unspecified)
system.cpu3.cacheBlockRoundTrip9         |           0                       |           0                       |           0                       |           0                       |           0                       |           0                       |           0                       |           0                       |           0                       |           0                       |           0                       |           0                       |           0                       |           0                       |           0                       |           0                       |           0                       |           0                       |           0                       |           0                       |           0                       |           0                       |           0                       |           0                       |           0                       |           0                       |           0                       |           0                       |           0                       |           0                       |           0                       |           0                       |           0                       |           0                       |           0                       |           0                       |           0                       |           0                       |           0                       |           0                       |           0                       |           0                       |           0                       |           0                       |           0                       |           0                       |           0                       |           0                       |           0                       |           0                       |           0                       |           0                       |           0                       |           0                       |           0                       |           0                       |           0                       |           0                       |           0                       |           0                       |           0                       |           0                       |           0                       |           0                       |           0                       |           0                       |           0                       |           0                       |           0                       |           0                       |           0                       |           0                       |           0                       |           0                       |           0                       |           0                       |           0                       |           0                       |           0                       |           0                       |           0                       |           0                       |           0                       |           0                       |           0                       |           0                       |           0                       |           0                       |           0                       |           0                       |           0                       |           0                       |           0                       |           0                       |           0                       |           0                       |           0                       |           0                       |           0                       |           0                       |           0                       |           0                       |           0                       |           0                       |           0                       |           0                       |           0                       |           0                       |           0                       |           0                       |           0                       |           0                       |           0                       |           0                       |           0                       |           0                       |           0                       |           0                       |           0                       |           0                       |           0                       |           0                       |           0                       |           0                       |           0                       |           0                       |           0                       |           0                       |           0                       |           0                       |           0                       |           0                       |           0                       |           0                       |           0                       |           0                       |           0                       |           0                       |           0                       |           0                       |           0                       |           0                       |           0                       |           0                       |           0                       |           0                       |           0                       |           0                       |           0                       |           0                       |           0                       |           0                       |           0                       |           0                       |           0                       |           0                       |           0                       |           0                       |           0                       |           0                       |           0                       # Coalsr-to-coalsr time for the Nth cache block in an inst (Unspecified)
system.cpu3.cacheBlockRoundTrip9::overflows            0                       # Coalsr-to-coalsr time for the Nth cache block in an inst (Unspecified)
system.cpu3.cacheBlockRoundTrip9::min_value            0                       # Coalsr-to-coalsr time for the Nth cache block in an inst (Unspecified)
system.cpu3.cacheBlockRoundTrip9::max_value            0                       # Coalsr-to-coalsr time for the Nth cache block in an inst (Unspecified)
system.cpu3.cacheBlockRoundTrip9::total             0                       # Coalsr-to-coalsr time for the Nth cache block in an inst (Unspecified)

---------- End Simulation Statistics   ----------
