
---------- Begin Simulation Statistics ----------
simSeconds                                   1.399206                       # Number of seconds simulated (Second)
simTicks                                 1399206076000                       # Number of ticks simulated (Tick)
finalTick                                1399206076000                       # Number of ticks from beginning of simulation (restored from checkpoints and never reset) (Tick)
simFreq                                  1000000000000                       # The number of ticks per simulated second ((Tick/Second))
hostSeconds                                   6791.98                       # Real time elapsed on the host (Second)
hostTickRate                                206008457                       # The number of ticks simulated per host second (ticks/s) ((Tick/Second))
hostMemory                                   20390400                       # Number of bytes of host memory used (Byte)
simInsts                                    738429520                       # Number of instructions simulated (Count)
simOps                                     1473085148                       # Number of ops (including micro ops) simulated (Count)
hostInstRate                                   108721                       # Simulator instruction rate (inst/s) ((Count/Second))
hostOpRate                                     216886                       # Simulator op (including micro ops) rate (op/s) ((Count/Second))
system.work_item_type0::samples                     1                       # Run time stat forwork_item_type0 (Unspecified)
system.work_item_type0::mean             375766328000                       # Run time stat forwork_item_type0 (Unspecified)
system.work_item_type0::gmean            375766328000.000183                       # Run time stat forwork_item_type0 (Unspecified)
system.work_item_type0::stdev                     nan                       # Run time stat forwork_item_type0 (Unspecified)
system.work_item_type0::0-3.43597e+10               0      0.00%      0.00% # Run time stat forwork_item_type0 (Unspecified)
system.work_item_type0::3.43597e+10-6.87195e+10            0      0.00%      0.00% # Run time stat forwork_item_type0 (Unspecified)
system.work_item_type0::6.87195e+10-1.03079e+11            0      0.00%      0.00% # Run time stat forwork_item_type0 (Unspecified)
system.work_item_type0::1.03079e+11-1.37439e+11            0      0.00%      0.00% # Run time stat forwork_item_type0 (Unspecified)
system.work_item_type0::1.37439e+11-1.71799e+11            0      0.00%      0.00% # Run time stat forwork_item_type0 (Unspecified)
system.work_item_type0::1.71799e+11-2.06158e+11            0      0.00%      0.00% # Run time stat forwork_item_type0 (Unspecified)
system.work_item_type0::2.06158e+11-2.40518e+11            0      0.00%      0.00% # Run time stat forwork_item_type0 (Unspecified)
system.work_item_type0::2.40518e+11-2.74878e+11            0      0.00%      0.00% # Run time stat forwork_item_type0 (Unspecified)
system.work_item_type0::2.74878e+11-3.09238e+11            0      0.00%      0.00% # Run time stat forwork_item_type0 (Unspecified)
system.work_item_type0::3.09238e+11-3.43597e+11            0      0.00%      0.00% # Run time stat forwork_item_type0 (Unspecified)
system.work_item_type0::3.43597e+11-3.77957e+11            1    100.00%    100.00% # Run time stat forwork_item_type0 (Unspecified)
system.work_item_type0::3.77957e+11-4.12317e+11            0      0.00%    100.00% # Run time stat forwork_item_type0 (Unspecified)
system.work_item_type0::4.12317e+11-4.46677e+11            0      0.00%    100.00% # Run time stat forwork_item_type0 (Unspecified)
system.work_item_type0::4.46677e+11-4.81036e+11            0      0.00%    100.00% # Run time stat forwork_item_type0 (Unspecified)
system.work_item_type0::4.81036e+11-5.15396e+11            0      0.00%    100.00% # Run time stat forwork_item_type0 (Unspecified)
system.work_item_type0::5.15396e+11-5.49756e+11            0      0.00%    100.00% # Run time stat forwork_item_type0 (Unspecified)
system.work_item_type0::5.49756e+11-5.84116e+11            0      0.00%    100.00% # Run time stat forwork_item_type0 (Unspecified)
system.work_item_type0::5.84116e+11-6.18475e+11            0      0.00%    100.00% # Run time stat forwork_item_type0 (Unspecified)
system.work_item_type0::6.18475e+11-6.52835e+11            0      0.00%    100.00% # Run time stat forwork_item_type0 (Unspecified)
system.work_item_type0::6.52835e+11-6.87195e+11            0      0.00%    100.00% # Run time stat forwork_item_type0 (Unspecified)
system.work_item_type0::total                       1                       # Run time stat forwork_item_type0 (Unspecified)
system.clk_domain.clock                          1000                       # Clock period in ticks (Tick)
system.cpu0.numCycles                      2798412152                       # Number of cpu cycles simulated (Cycle)
system.cpu0.cpi                              4.120534                       # CPI: cycles per instruction (core level) ((Cycle/Count))
system.cpu0.ipc                              0.242687                       # IPC: instructions per cycle (core level) ((Count/Cycle))
system.cpu0.numWorkItemsStarted                     1                       # Number of work items this cpu started (Count)
system.cpu0.numWorkItemsCompleted                   1                       # Number of work items this cpu completed (Count)
system.cpu0.clk_domain.clock                      500                       # Clock period in ticks (Tick)
system.cpu0.clk_domain.voltage_domain.voltage            1                       # Voltage in Volts (Volt)
system.cpu0.commitStats0.numInsts           679138308                       # Number of instructions committed (thread level) (Count)
system.cpu0.commitStats0.numOps            1341747706                       # Number of ops (including micro ops) committed (thread level) (Count)
system.cpu0.commitStats0.numInstsNotNOP             0                       # Number of instructions committed excluding NOPs or prefetches (Count)
system.cpu0.commitStats0.numOpsNotNOP               0                       # Number of Ops (including micro ops) Simulated (Count)
system.cpu0.commitStats0.cpi                 4.120534                       # CPI: cycles per instruction (thread level) ((Cycle/Count))
system.cpu0.commitStats0.ipc                 0.242687                       # IPC: instructions per cycle (thread level) ((Count/Cycle))
system.cpu0.commitStats0.numMemRefs                 0                       # Number of memory references committed (Count)
system.cpu0.commitStats0.numFpInsts          19889235                       # Number of float instructions (Count)
system.cpu0.commitStats0.numIntInsts       1279042626                       # Number of integer instructions (Count)
system.cpu0.commitStats0.numLoadInsts       172212753                       # Number of load instructions (Count)
system.cpu0.commitStats0.numStoreInsts       95390264                       # Number of store instructions (Count)
system.cpu0.commitStats0.numVecInsts                0                       # Number of vector instructions (Count)
system.cpu0.commitStats0.committedInstType::No_OpClass     38266043      2.85%      2.85% # Class of committed instruction. (Count)
system.cpu0.commitStats0.committedInstType::IntAlu   1026601184     76.51%     79.36% # Class of committed instruction. (Count)
system.cpu0.commitStats0.committedInstType::IntMult      1233735      0.09%     79.46% # Class of committed instruction. (Count)
system.cpu0.commitStats0.committedInstType::IntDiv       235989      0.02%     79.47% # Class of committed instruction. (Count)
system.cpu0.commitStats0.committedInstType::FloatAdd      1827826      0.14%     79.61% # Class of committed instruction. (Count)
system.cpu0.commitStats0.committedInstType::FloatCmp           87      0.00%     79.61% # Class of committed instruction. (Count)
system.cpu0.commitStats0.committedInstType::FloatCvt         7258      0.00%     79.61% # Class of committed instruction. (Count)
system.cpu0.commitStats0.committedInstType::FloatMult           29      0.00%     79.61% # Class of committed instruction. (Count)
system.cpu0.commitStats0.committedInstType::FloatMultAcc            0      0.00%     79.61% # Class of committed instruction. (Count)
system.cpu0.commitStats0.committedInstType::FloatDiv           29      0.00%     79.61% # Class of committed instruction. (Count)
system.cpu0.commitStats0.committedInstType::FloatMisc            0      0.00%     79.61% # Class of committed instruction. (Count)
system.cpu0.commitStats0.committedInstType::FloatSqrt            0      0.00%     79.61% # Class of committed instruction. (Count)
system.cpu0.commitStats0.committedInstType::SimdAdd        23418      0.00%     79.61% # Class of committed instruction. (Count)
system.cpu0.commitStats0.committedInstType::SimdAddAcc            0      0.00%     79.61% # Class of committed instruction. (Count)
system.cpu0.commitStats0.committedInstType::SimdAlu       939968      0.07%     79.68% # Class of committed instruction. (Count)
system.cpu0.commitStats0.committedInstType::SimdCmp         3090      0.00%     79.68% # Class of committed instruction. (Count)
system.cpu0.commitStats0.committedInstType::SimdCvt       665826      0.05%     79.73% # Class of committed instruction. (Count)
system.cpu0.commitStats0.committedInstType::SimdMisc      3494742      0.26%     79.99% # Class of committed instruction. (Count)
system.cpu0.commitStats0.committedInstType::SimdMult            0      0.00%     79.99% # Class of committed instruction. (Count)
system.cpu0.commitStats0.committedInstType::SimdMultAcc            0      0.00%     79.99% # Class of committed instruction. (Count)
system.cpu0.commitStats0.committedInstType::SimdMatMultAcc            0      0.00%     79.99% # Class of committed instruction. (Count)
system.cpu0.commitStats0.committedInstType::SimdShift         8812      0.00%     79.99% # Class of committed instruction. (Count)
system.cpu0.commitStats0.committedInstType::SimdShiftAcc            0      0.00%     79.99% # Class of committed instruction. (Count)
system.cpu0.commitStats0.committedInstType::SimdDiv            0      0.00%     79.99% # Class of committed instruction. (Count)
system.cpu0.commitStats0.committedInstType::SimdSqrt            0      0.00%     79.99% # Class of committed instruction. (Count)
system.cpu0.commitStats0.committedInstType::SimdFloatAdd        92610      0.01%     80.00% # Class of committed instruction. (Count)
system.cpu0.commitStats0.committedInstType::SimdFloatAlu            0      0.00%     80.00% # Class of committed instruction. (Count)
system.cpu0.commitStats0.committedInstType::SimdFloatCmp            0      0.00%     80.00% # Class of committed instruction. (Count)
system.cpu0.commitStats0.committedInstType::SimdFloatCvt       558793      0.04%     80.04% # Class of committed instruction. (Count)
system.cpu0.commitStats0.committedInstType::SimdFloatDiv            5      0.00%     80.04% # Class of committed instruction. (Count)
system.cpu0.commitStats0.committedInstType::SimdFloatMisc            0      0.00%     80.04% # Class of committed instruction. (Count)
system.cpu0.commitStats0.committedInstType::SimdFloatMult       185245      0.01%     80.06% # Class of committed instruction. (Count)
system.cpu0.commitStats0.committedInstType::SimdFloatMultAcc            0      0.00%     80.06% # Class of committed instruction. (Count)
system.cpu0.commitStats0.committedInstType::SimdFloatMatMultAcc            0      0.00%     80.06% # Class of committed instruction. (Count)
system.cpu0.commitStats0.committedInstType::SimdFloatSqrt            0      0.00%     80.06% # Class of committed instruction. (Count)
system.cpu0.commitStats0.committedInstType::SimdReduceAdd            0      0.00%     80.06% # Class of committed instruction. (Count)
system.cpu0.commitStats0.committedInstType::SimdReduceAlu            0      0.00%     80.06% # Class of committed instruction. (Count)
system.cpu0.commitStats0.committedInstType::SimdReduceCmp            0      0.00%     80.06% # Class of committed instruction. (Count)
system.cpu0.commitStats0.committedInstType::SimdFloatReduceAdd            0      0.00%     80.06% # Class of committed instruction. (Count)
system.cpu0.commitStats0.committedInstType::SimdFloatReduceCmp            0      0.00%     80.06% # Class of committed instruction. (Count)
system.cpu0.commitStats0.committedInstType::SimdAes            0      0.00%     80.06% # Class of committed instruction. (Count)
system.cpu0.commitStats0.committedInstType::SimdAesMix            0      0.00%     80.06% # Class of committed instruction. (Count)
system.cpu0.commitStats0.committedInstType::SimdSha1Hash            0      0.00%     80.06% # Class of committed instruction. (Count)
system.cpu0.commitStats0.committedInstType::SimdSha1Hash2            0      0.00%     80.06% # Class of committed instruction. (Count)
system.cpu0.commitStats0.committedInstType::SimdSha256Hash            0      0.00%     80.06% # Class of committed instruction. (Count)
system.cpu0.commitStats0.committedInstType::SimdSha256Hash2            0      0.00%     80.06% # Class of committed instruction. (Count)
system.cpu0.commitStats0.committedInstType::SimdShaSigma2            0      0.00%     80.06% # Class of committed instruction. (Count)
system.cpu0.commitStats0.committedInstType::SimdShaSigma3            0      0.00%     80.06% # Class of committed instruction. (Count)
system.cpu0.commitStats0.committedInstType::SimdPredAlu            0      0.00%     80.06% # Class of committed instruction. (Count)
system.cpu0.commitStats0.committedInstType::Matrix            0      0.00%     80.06% # Class of committed instruction. (Count)
system.cpu0.commitStats0.committedInstType::MatrixMov            0      0.00%     80.06% # Class of committed instruction. (Count)
system.cpu0.commitStats0.committedInstType::MatrixOP            0      0.00%     80.06% # Class of committed instruction. (Count)
system.cpu0.commitStats0.committedInstType::MemRead    167640256     12.49%     92.55% # Class of committed instruction. (Count)
system.cpu0.commitStats0.committedInstType::MemWrite     89025238      6.64%     99.18% # Class of committed instruction. (Count)
system.cpu0.commitStats0.committedInstType::FloatMemRead      4572497      0.34%     99.53% # Class of committed instruction. (Count)
system.cpu0.commitStats0.committedInstType::FloatMemWrite      6365026      0.47%    100.00% # Class of committed instruction. (Count)
system.cpu0.commitStats0.committedInstType::IprAccess            0      0.00%    100.00% # Class of committed instruction. (Count)
system.cpu0.commitStats0.committedInstType::InstPrefetch            0      0.00%    100.00% # Class of committed instruction. (Count)
system.cpu0.commitStats0.committedInstType::VectorUnitStrideLoad            0      0.00%    100.00% # Class of committed instruction. (Count)
system.cpu0.commitStats0.committedInstType::VectorUnitStrideStore            0      0.00%    100.00% # Class of committed instruction. (Count)
system.cpu0.commitStats0.committedInstType::VectorUnitStrideMaskLoad            0      0.00%    100.00% # Class of committed instruction. (Count)
system.cpu0.commitStats0.committedInstType::VectorUnitStrideMaskStore            0      0.00%    100.00% # Class of committed instruction. (Count)
system.cpu0.commitStats0.committedInstType::VectorStridedLoad            0      0.00%    100.00% # Class of committed instruction. (Count)
system.cpu0.commitStats0.committedInstType::VectorStridedStore            0      0.00%    100.00% # Class of committed instruction. (Count)
system.cpu0.commitStats0.committedInstType::VectorIndexedLoad            0      0.00%    100.00% # Class of committed instruction. (Count)
system.cpu0.commitStats0.committedInstType::VectorIndexedStore            0      0.00%    100.00% # Class of committed instruction. (Count)
system.cpu0.commitStats0.committedInstType::VectorUnitStrideFaultOnlyFirstLoad            0      0.00%    100.00% # Class of committed instruction. (Count)
system.cpu0.commitStats0.committedInstType::VectorWholeRegisterLoad            0      0.00%    100.00% # Class of committed instruction. (Count)
system.cpu0.commitStats0.committedInstType::VectorWholeRegisterStore            0      0.00%    100.00% # Class of committed instruction. (Count)
system.cpu0.commitStats0.committedInstType::VectorIntegerArith            0      0.00%    100.00% # Class of committed instruction. (Count)
system.cpu0.commitStats0.committedInstType::VectorFloatArith            0      0.00%    100.00% # Class of committed instruction. (Count)
system.cpu0.commitStats0.committedInstType::VectorFloatConvert            0      0.00%    100.00% # Class of committed instruction. (Count)
system.cpu0.commitStats0.committedInstType::VectorIntegerReduce            0      0.00%    100.00% # Class of committed instruction. (Count)
system.cpu0.commitStats0.committedInstType::VectorFloatReduce            0      0.00%    100.00% # Class of committed instruction. (Count)
system.cpu0.commitStats0.committedInstType::VectorMisc            0      0.00%    100.00% # Class of committed instruction. (Count)
system.cpu0.commitStats0.committedInstType::VectorIntegerExtension            0      0.00%    100.00% # Class of committed instruction. (Count)
system.cpu0.commitStats0.committedInstType::VectorConfig            0      0.00%    100.00% # Class of committed instruction. (Count)
system.cpu0.commitStats0.committedInstType::total   1341747706                       # Class of committed instruction. (Count)
system.cpu0.commitStats0.committedControl::IsControl    207365422                       # Class of control type instructions committed (Count)
system.cpu0.commitStats0.committedControl::IsDirectControl    152233070                       # Class of control type instructions committed (Count)
system.cpu0.commitStats0.committedControl::IsIndirectControl     55130974                       # Class of control type instructions committed (Count)
system.cpu0.commitStats0.committedControl::IsCondControl    100184282                       # Class of control type instructions committed (Count)
system.cpu0.commitStats0.committedControl::IsUncondControl    107179762                       # Class of control type instructions committed (Count)
system.cpu0.commitStats0.committedControl::IsCall     32699377                       # Class of control type instructions committed (Count)
system.cpu0.commitStats0.committedControl::IsReturn     32699359                       # Class of control type instructions committed (Count)
system.cpu0.exec_context.thread_0.numMatAluAccesses            0                       # Number of matrix alu accesses (Count)
system.cpu0.exec_context.thread_0.numCallsReturns     65398736                       # Number of times a function call or return occured (Count)
system.cpu0.exec_context.thread_0.numMatInsts            0                       # Number of matrix instructions (Count)
system.cpu0.exec_context.thread_0.numIdleCycles 8406298.001994                       # Number of idle cycles (Cycle)
system.cpu0.exec_context.thread_0.numBusyCycles 2790005853.998006                       # Number of busy cycles (Cycle)
system.cpu0.exec_context.thread_0.notIdleFraction     0.996996                       # Percentage of non-idle cycles (Ratio)
system.cpu0.exec_context.thread_0.idleFraction     0.003004                       # Percentage of idle cycles (Ratio)
system.cpu0.executeStats0.numInsts                  0                       # Number of executed instructions (Count)
system.cpu0.executeStats0.numNop                    0                       # Number of nop insts executed (Count)
system.cpu0.executeStats0.numBranches               0                       # Number of branches executed (Count)
system.cpu0.executeStats0.numLoadInsts              0                       # Number of load instructions executed (Count)
system.cpu0.executeStats0.numStoreInsts     267603017                       # Number of stores executed (Count)
system.cpu0.executeStats0.instRate                  0                       # Inst execution rate ((Count/Cycle))
system.cpu0.executeStats0.numFpAluAccesses     19889235                       # Number of float alu accesses (Count)
system.cpu0.executeStats0.numFpRegReads      20225076                       # Number of times the floating registers were read (Count)
system.cpu0.executeStats0.numFpRegWrites     12502185                       # Number of times the floating registers were written (Count)
system.cpu0.executeStats0.numIntAluAccesses   1279042626                       # Number of integer alu accesses (Count)
system.cpu0.executeStats0.numIntRegReads   1468117101                       # Number of times the integer registers were read (Count)
system.cpu0.executeStats0.numIntRegWrites    870732850                       # Number of times the integer registers were written (Count)
system.cpu0.executeStats0.numMemRefs        267603017                       # Number of memory refs (Count)
system.cpu0.executeStats0.numMiscRegReads    652570071                       # Number of times the Misc registers were read (Count)
system.cpu0.executeStats0.numMiscRegWrites         4978                       # Number of times the Misc registers were written (Count)
system.cpu0.executeStats0.numVecAluAccesses            0                       # Number of vector alu accesses (Count)
system.cpu0.executeStats0.numDiscardedOps            0                       # Number of ops (including micro ops) which were discarded before commit (Count)
system.cpu0.fetchStats0.numInsts            679138308                       # Number of instructions fetched (thread level) (Count)
system.cpu0.fetchStats0.numOps             1341747706                       # Number of ops (including micro ops) fetched (thread level) (Count)
system.cpu0.fetchStats0.fetchRate            0.242687                       # Number of inst fetches per cycle ((Count/Cycle))
system.cpu0.fetchStats0.numBranches         207365422                       # Number of branches fetched (Count)
system.cpu0.fetchStats0.branchRate           0.074101                       # Number of branch fetches per cycle (Ratio)
system.cpu0.fetchStats0.numFetchSuspends            0                       # Number of times Execute suspended instruction fetching (Count)
system.cpu0.interrupts.clk_domain.clock          8000                       # Clock period in ticks (Tick)
system.cpu0.mmu.dtb.rdAccesses              172834388                       # TLB accesses on read requests (Count)
system.cpu0.mmu.dtb.wrAccesses               95619573                       # TLB accesses on write requests (Count)
system.cpu0.mmu.dtb.rdMisses                    27948                       # TLB misses on read requests (Count)
system.cpu0.mmu.dtb.wrMisses                    17867                       # TLB misses on write requests (Count)
system.cpu0.mmu.dtb.walker.power_state.pwrStateResidencyTicks::UNDEFINED 1399206076000                       # Cumulative time (in ticks) in various power states (Tick)
system.cpu0.mmu.itb.rdAccesses                      0                       # TLB accesses on read requests (Count)
system.cpu0.mmu.itb.wrAccesses              877123571                       # TLB accesses on write requests (Count)
system.cpu0.mmu.itb.rdMisses                        0                       # TLB misses on read requests (Count)
system.cpu0.mmu.itb.wrMisses                    11037                       # TLB misses on write requests (Count)
system.cpu0.mmu.itb.walker.power_state.pwrStateResidencyTicks::UNDEFINED 1399206076000                       # Cumulative time (in ticks) in various power states (Tick)
system.cpu0.power_state.numTransitions             26                       # Number of power state transitions (Count)
system.cpu0.power_state.ticksClkGated::samples           13                       # Distribution of time spent in the clock gated state (Tick)
system.cpu0.power_state.ticksClkGated::mean 323319153.846154                       # Distribution of time spent in the clock gated state (Tick)
system.cpu0.power_state.ticksClkGated::stdev 1127943439.896301                       # Distribution of time spent in the clock gated state (Tick)
system.cpu0.power_state.ticksClkGated::1000-5e+10           13    100.00%    100.00% # Distribution of time spent in the clock gated state (Tick)
system.cpu0.power_state.ticksClkGated::min_value       134500                       # Distribution of time spent in the clock gated state (Tick)
system.cpu0.power_state.ticksClkGated::max_value   4076639000                       # Distribution of time spent in the clock gated state (Tick)
system.cpu0.power_state.ticksClkGated::total           13                       # Distribution of time spent in the clock gated state (Tick)
system.cpu0.power_state.pwrStateResidencyTicks::ON 1395002927000                       # Cumulative time (in ticks) in various power states (Tick)
system.cpu0.power_state.pwrStateResidencyTicks::CLK_GATED   4203149000                       # Cumulative time (in ticks) in various power states (Tick)
system.cpu0.thread_0.numInsts                       0                       # Number of Instructions committed (Count)
system.cpu0.thread_0.numOps                         0                       # Number of Ops committed (Count)
system.cpu0.thread_0.numMemRefs                     0                       # Number of Memory References (Count)
system.cpu0.workload.numSyscalls             16697778                       # Number of system calls (Count)
system.cpu0.workload.drivers0.device.dispatcher.numKernelLaunched         1051                       # number of kernel launched (Unspecified)
system.cpu0.workload.drivers0.device.dispatcher.cyclesWaitingForDispatch         3153                       # number of cycles with outstanding wavefronts that are waiting to be dispatched (Unspecified)
system.cpu0.workload.drivers0.device.hsapp.power_state.pwrStateResidencyTicks::UNDEFINED 1399206076000                       # Cumulative time (in ticks) in various power states (Tick)
system.cpu0.workload.drivers0.device.hsapp.walker.power_state.pwrStateResidencyTicks::UNDEFINED 1399206076000                       # Cumulative time (in ticks) in various power states (Tick)
system.cpu0.workload.drivers0.device.power_state.pwrStateResidencyTicks::UNDEFINED 1399206076000                       # Cumulative time (in ticks) in various power states (Tick)
system.cpu0.workload.drivers0.device.walker.power_state.pwrStateResidencyTicks::UNDEFINED 1399206076000                       # Cumulative time (in ticks) in various power states (Tick)
system.cpu1.numCycles                      2029364819                       # Number of cpu cycles simulated (Cycle)
system.cpu1.cpi                           5867.827932                       # CPI: cycles per instruction (core level) ((Cycle/Count))
system.cpu1.ipc                              0.000170                       # IPC: instructions per cycle (core level) ((Count/Cycle))
system.cpu1.numWorkItemsStarted                     0                       # Number of work items this cpu started (Count)
system.cpu1.numWorkItemsCompleted                   0                       # Number of work items this cpu completed (Count)
system.cpu1.clk_domain.clock                      500                       # Clock period in ticks (Tick)
system.cpu1.clk_domain.voltage_domain.voltage            1                       # Voltage in Volts (Volt)
system.cpu1.commitStats0.numInsts              345846                       # Number of instructions committed (thread level) (Count)
system.cpu1.commitStats0.numOps                644086                       # Number of ops (including micro ops) committed (thread level) (Count)
system.cpu1.commitStats0.numInstsNotNOP             0                       # Number of instructions committed excluding NOPs or prefetches (Count)
system.cpu1.commitStats0.numOpsNotNOP               0                       # Number of Ops (including micro ops) Simulated (Count)
system.cpu1.commitStats0.cpi              5867.827932                       # CPI: cycles per instruction (thread level) ((Cycle/Count))
system.cpu1.commitStats0.ipc                 0.000170                       # IPC: instructions per cycle (thread level) ((Count/Cycle))
system.cpu1.commitStats0.numMemRefs                 0                       # Number of memory references committed (Count)
system.cpu1.commitStats0.numFpInsts             20260                       # Number of float instructions (Count)
system.cpu1.commitStats0.numIntInsts           620661                       # Number of integer instructions (Count)
system.cpu1.commitStats0.numLoadInsts          144045                       # Number of load instructions (Count)
system.cpu1.commitStats0.numStoreInsts          14752                       # Number of store instructions (Count)
system.cpu1.commitStats0.numVecInsts                0                       # Number of vector instructions (Count)
system.cpu1.commitStats0.committedInstType::No_OpClass        10539      1.64%      1.64% # Class of committed instruction. (Count)
system.cpu1.commitStats0.committedInstType::IntAlu       460618     71.51%     73.15% # Class of committed instruction. (Count)
system.cpu1.commitStats0.committedInstType::IntMult            3      0.00%     73.15% # Class of committed instruction. (Count)
system.cpu1.commitStats0.committedInstType::IntDiv           75      0.01%     73.16% # Class of committed instruction. (Count)
system.cpu1.commitStats0.committedInstType::FloatAdd         2866      0.44%     73.61% # Class of committed instruction. (Count)
system.cpu1.commitStats0.committedInstType::FloatCmp            0      0.00%     73.61% # Class of committed instruction. (Count)
system.cpu1.commitStats0.committedInstType::FloatCvt           48      0.01%     73.62% # Class of committed instruction. (Count)
system.cpu1.commitStats0.committedInstType::FloatMult            0      0.00%     73.62% # Class of committed instruction. (Count)
system.cpu1.commitStats0.committedInstType::FloatMultAcc            0      0.00%     73.62% # Class of committed instruction. (Count)
system.cpu1.commitStats0.committedInstType::FloatDiv            0      0.00%     73.62% # Class of committed instruction. (Count)
system.cpu1.commitStats0.committedInstType::FloatMisc            0      0.00%     73.62% # Class of committed instruction. (Count)
system.cpu1.commitStats0.committedInstType::FloatSqrt            0      0.00%     73.62% # Class of committed instruction. (Count)
system.cpu1.commitStats0.committedInstType::SimdAdd           20      0.00%     73.62% # Class of committed instruction. (Count)
system.cpu1.commitStats0.committedInstType::SimdAddAcc            0      0.00%     73.62% # Class of committed instruction. (Count)
system.cpu1.commitStats0.committedInstType::SimdAlu         2758      0.43%     74.05% # Class of committed instruction. (Count)
system.cpu1.commitStats0.committedInstType::SimdCmp            0      0.00%     74.05% # Class of committed instruction. (Count)
system.cpu1.commitStats0.committedInstType::SimdCvt           40      0.01%     74.05% # Class of committed instruction. (Count)
system.cpu1.commitStats0.committedInstType::SimdMisc         1544      0.24%     74.29% # Class of committed instruction. (Count)
system.cpu1.commitStats0.committedInstType::SimdMult            0      0.00%     74.29% # Class of committed instruction. (Count)
system.cpu1.commitStats0.committedInstType::SimdMultAcc            0      0.00%     74.29% # Class of committed instruction. (Count)
system.cpu1.commitStats0.committedInstType::SimdMatMultAcc            0      0.00%     74.29% # Class of committed instruction. (Count)
system.cpu1.commitStats0.committedInstType::SimdShift           21      0.00%     74.30% # Class of committed instruction. (Count)
system.cpu1.commitStats0.committedInstType::SimdShiftAcc            0      0.00%     74.30% # Class of committed instruction. (Count)
system.cpu1.commitStats0.committedInstType::SimdDiv            0      0.00%     74.30% # Class of committed instruction. (Count)
system.cpu1.commitStats0.committedInstType::SimdSqrt            0      0.00%     74.30% # Class of committed instruction. (Count)
system.cpu1.commitStats0.committedInstType::SimdFloatAdd         1351      0.21%     74.51% # Class of committed instruction. (Count)
system.cpu1.commitStats0.committedInstType::SimdFloatAlu            0      0.00%     74.51% # Class of committed instruction. (Count)
system.cpu1.commitStats0.committedInstType::SimdFloatCmp            0      0.00%     74.51% # Class of committed instruction. (Count)
system.cpu1.commitStats0.committedInstType::SimdFloatCvt         4047      0.63%     75.13% # Class of committed instruction. (Count)
system.cpu1.commitStats0.committedInstType::SimdFloatDiv            7      0.00%     75.14% # Class of committed instruction. (Count)
system.cpu1.commitStats0.committedInstType::SimdFloatMisc            0      0.00%     75.14% # Class of committed instruction. (Count)
system.cpu1.commitStats0.committedInstType::SimdFloatMult         1352      0.21%     75.35% # Class of committed instruction. (Count)
system.cpu1.commitStats0.committedInstType::SimdFloatMultAcc            0      0.00%     75.35% # Class of committed instruction. (Count)
system.cpu1.commitStats0.committedInstType::SimdFloatMatMultAcc            0      0.00%     75.35% # Class of committed instruction. (Count)
system.cpu1.commitStats0.committedInstType::SimdFloatSqrt            0      0.00%     75.35% # Class of committed instruction. (Count)
system.cpu1.commitStats0.committedInstType::SimdReduceAdd            0      0.00%     75.35% # Class of committed instruction. (Count)
system.cpu1.commitStats0.committedInstType::SimdReduceAlu            0      0.00%     75.35% # Class of committed instruction. (Count)
system.cpu1.commitStats0.committedInstType::SimdReduceCmp            0      0.00%     75.35% # Class of committed instruction. (Count)
system.cpu1.commitStats0.committedInstType::SimdFloatReduceAdd            0      0.00%     75.35% # Class of committed instruction. (Count)
system.cpu1.commitStats0.committedInstType::SimdFloatReduceCmp            0      0.00%     75.35% # Class of committed instruction. (Count)
system.cpu1.commitStats0.committedInstType::SimdAes            0      0.00%     75.35% # Class of committed instruction. (Count)
system.cpu1.commitStats0.committedInstType::SimdAesMix            0      0.00%     75.35% # Class of committed instruction. (Count)
system.cpu1.commitStats0.committedInstType::SimdSha1Hash            0      0.00%     75.35% # Class of committed instruction. (Count)
system.cpu1.commitStats0.committedInstType::SimdSha1Hash2            0      0.00%     75.35% # Class of committed instruction. (Count)
system.cpu1.commitStats0.committedInstType::SimdSha256Hash            0      0.00%     75.35% # Class of committed instruction. (Count)
system.cpu1.commitStats0.committedInstType::SimdSha256Hash2            0      0.00%     75.35% # Class of committed instruction. (Count)
system.cpu1.commitStats0.committedInstType::SimdShaSigma2            0      0.00%     75.35% # Class of committed instruction. (Count)
system.cpu1.commitStats0.committedInstType::SimdShaSigma3            0      0.00%     75.35% # Class of committed instruction. (Count)
system.cpu1.commitStats0.committedInstType::SimdPredAlu            0      0.00%     75.35% # Class of committed instruction. (Count)
system.cpu1.commitStats0.committedInstType::Matrix            0      0.00%     75.35% # Class of committed instruction. (Count)
system.cpu1.commitStats0.committedInstType::MatrixMov            0      0.00%     75.35% # Class of committed instruction. (Count)
system.cpu1.commitStats0.committedInstType::MatrixOP            0      0.00%     75.35% # Class of committed instruction. (Count)
system.cpu1.commitStats0.committedInstType::MemRead       138490     21.50%     96.85% # Class of committed instruction. (Count)
system.cpu1.commitStats0.committedInstType::MemWrite        14255      2.21%     99.06% # Class of committed instruction. (Count)
system.cpu1.commitStats0.committedInstType::FloatMemRead         5555      0.86%     99.92% # Class of committed instruction. (Count)
system.cpu1.commitStats0.committedInstType::FloatMemWrite          497      0.08%    100.00% # Class of committed instruction. (Count)
system.cpu1.commitStats0.committedInstType::IprAccess            0      0.00%    100.00% # Class of committed instruction. (Count)
system.cpu1.commitStats0.committedInstType::InstPrefetch            0      0.00%    100.00% # Class of committed instruction. (Count)
system.cpu1.commitStats0.committedInstType::VectorUnitStrideLoad            0      0.00%    100.00% # Class of committed instruction. (Count)
system.cpu1.commitStats0.committedInstType::VectorUnitStrideStore            0      0.00%    100.00% # Class of committed instruction. (Count)
system.cpu1.commitStats0.committedInstType::VectorUnitStrideMaskLoad            0      0.00%    100.00% # Class of committed instruction. (Count)
system.cpu1.commitStats0.committedInstType::VectorUnitStrideMaskStore            0      0.00%    100.00% # Class of committed instruction. (Count)
system.cpu1.commitStats0.committedInstType::VectorStridedLoad            0      0.00%    100.00% # Class of committed instruction. (Count)
system.cpu1.commitStats0.committedInstType::VectorStridedStore            0      0.00%    100.00% # Class of committed instruction. (Count)
system.cpu1.commitStats0.committedInstType::VectorIndexedLoad            0      0.00%    100.00% # Class of committed instruction. (Count)
system.cpu1.commitStats0.committedInstType::VectorIndexedStore            0      0.00%    100.00% # Class of committed instruction. (Count)
system.cpu1.commitStats0.committedInstType::VectorUnitStrideFaultOnlyFirstLoad            0      0.00%    100.00% # Class of committed instruction. (Count)
system.cpu1.commitStats0.committedInstType::VectorWholeRegisterLoad            0      0.00%    100.00% # Class of committed instruction. (Count)
system.cpu1.commitStats0.committedInstType::VectorWholeRegisterStore            0      0.00%    100.00% # Class of committed instruction. (Count)
system.cpu1.commitStats0.committedInstType::VectorIntegerArith            0      0.00%    100.00% # Class of committed instruction. (Count)
system.cpu1.commitStats0.committedInstType::VectorFloatArith            0      0.00%    100.00% # Class of committed instruction. (Count)
system.cpu1.commitStats0.committedInstType::VectorFloatConvert            0      0.00%    100.00% # Class of committed instruction. (Count)
system.cpu1.commitStats0.committedInstType::VectorIntegerReduce            0      0.00%    100.00% # Class of committed instruction. (Count)
system.cpu1.commitStats0.committedInstType::VectorFloatReduce            0      0.00%    100.00% # Class of committed instruction. (Count)
system.cpu1.commitStats0.committedInstType::VectorMisc            0      0.00%    100.00% # Class of committed instruction. (Count)
system.cpu1.commitStats0.committedInstType::VectorIntegerExtension            0      0.00%    100.00% # Class of committed instruction. (Count)
system.cpu1.commitStats0.committedInstType::VectorConfig            0      0.00%    100.00% # Class of committed instruction. (Count)
system.cpu1.commitStats0.committedInstType::total       644086                       # Class of committed instruction. (Count)
system.cpu1.commitStats0.committedControl::IsControl       110261                       # Class of control type instructions committed (Count)
system.cpu1.commitStats0.committedControl::IsDirectControl        92185                       # Class of control type instructions committed (Count)
system.cpu1.commitStats0.committedControl::IsIndirectControl        18073                       # Class of control type instructions committed (Count)
system.cpu1.commitStats0.committedControl::IsCondControl        89445                       # Class of control type instructions committed (Count)
system.cpu1.commitStats0.committedControl::IsUncondControl        20813                       # Class of control type instructions committed (Count)
system.cpu1.commitStats0.committedControl::IsCall         9069                       # Class of control type instructions committed (Count)
system.cpu1.commitStats0.committedControl::IsReturn         9061                       # Class of control type instructions committed (Count)
system.cpu1.exec_context.thread_0.numMatAluAccesses            0                       # Number of matrix alu accesses (Count)
system.cpu1.exec_context.thread_0.numCallsReturns        18130                       # Number of times a function call or return occured (Count)
system.cpu1.exec_context.thread_0.numMatInsts            0                       # Number of matrix instructions (Count)
system.cpu1.exec_context.thread_0.numIdleCycles 2028394336.634394                       # Number of idle cycles (Cycle)
system.cpu1.exec_context.thread_0.numBusyCycles 970482.365606                       # Number of busy cycles (Cycle)
system.cpu1.exec_context.thread_0.notIdleFraction     0.000478                       # Percentage of non-idle cycles (Ratio)
system.cpu1.exec_context.thread_0.idleFraction     0.999522                       # Percentage of idle cycles (Ratio)
system.cpu1.executeStats0.numInsts                  0                       # Number of executed instructions (Count)
system.cpu1.executeStats0.numNop                    0                       # Number of nop insts executed (Count)
system.cpu1.executeStats0.numBranches               0                       # Number of branches executed (Count)
system.cpu1.executeStats0.numLoadInsts              0                       # Number of load instructions executed (Count)
system.cpu1.executeStats0.numStoreInsts        158797                       # Number of stores executed (Count)
system.cpu1.executeStats0.instRate                  0                       # Inst execution rate ((Count/Cycle))
system.cpu1.executeStats0.numFpAluAccesses        20260                       # Number of float alu accesses (Count)
system.cpu1.executeStats0.numFpRegReads         24383                       # Number of times the floating registers were read (Count)
system.cpu1.executeStats0.numFpRegWrites        17004                       # Number of times the floating registers were written (Count)
system.cpu1.executeStats0.numIntAluAccesses       620661                       # Number of integer alu accesses (Count)
system.cpu1.executeStats0.numIntRegReads       676175                       # Number of times the integer registers were read (Count)
system.cpu1.executeStats0.numIntRegWrites       403515                       # Number of times the integer registers were written (Count)
system.cpu1.executeStats0.numMemRefs           158797                       # Number of memory refs (Count)
system.cpu1.executeStats0.numMiscRegReads       374364                       # Number of times the Misc registers were read (Count)
system.cpu1.executeStats0.numMiscRegWrites           27                       # Number of times the Misc registers were written (Count)
system.cpu1.executeStats0.numVecAluAccesses            0                       # Number of vector alu accesses (Count)
system.cpu1.executeStats0.numDiscardedOps            0                       # Number of ops (including micro ops) which were discarded before commit (Count)
system.cpu1.fetchStats0.numInsts               345846                       # Number of instructions fetched (thread level) (Count)
system.cpu1.fetchStats0.numOps                 644086                       # Number of ops (including micro ops) fetched (thread level) (Count)
system.cpu1.fetchStats0.fetchRate            0.000170                       # Number of inst fetches per cycle ((Count/Cycle))
system.cpu1.fetchStats0.numBranches            110261                       # Number of branches fetched (Count)
system.cpu1.fetchStats0.branchRate           0.000054                       # Number of branch fetches per cycle (Ratio)
system.cpu1.fetchStats0.numFetchSuspends            0                       # Number of times Execute suspended instruction fetching (Count)
system.cpu1.interrupts.clk_domain.clock          8000                       # Clock period in ticks (Tick)
system.cpu1.mmu.dtb.rdAccesses                 144045                       # TLB accesses on read requests (Count)
system.cpu1.mmu.dtb.wrAccesses                  14752                       # TLB accesses on write requests (Count)
system.cpu1.mmu.dtb.rdMisses                      153                       # TLB misses on read requests (Count)
system.cpu1.mmu.dtb.wrMisses                        4                       # TLB misses on write requests (Count)
system.cpu1.mmu.dtb.walker.power_state.pwrStateResidencyTicks::UNDEFINED 1399206076000                       # Cumulative time (in ticks) in various power states (Tick)
system.cpu1.mmu.itb.rdAccesses                      0                       # TLB accesses on read requests (Count)
system.cpu1.mmu.itb.wrAccesses                 456837                       # TLB accesses on write requests (Count)
system.cpu1.mmu.itb.rdMisses                        0                       # TLB misses on read requests (Count)
system.cpu1.mmu.itb.wrMisses                      129                       # TLB misses on write requests (Count)
system.cpu1.mmu.itb.walker.power_state.pwrStateResidencyTicks::UNDEFINED 1399206076000                       # Cumulative time (in ticks) in various power states (Tick)
system.cpu1.power_state.numTransitions              3                       # Number of power state transitions (Count)
system.cpu1.power_state.ticksClkGated::samples            2                       # Distribution of time spent in the clock gated state (Tick)
system.cpu1.power_state.ticksClkGated::mean 193293609000                       # Distribution of time spent in the clock gated state (Tick)
system.cpu1.power_state.ticksClkGated::stdev 270440140849.886780                       # Distribution of time spent in the clock gated state (Tick)
system.cpu1.power_state.ticksClkGated::1000-5e+10            1     50.00%     50.00% # Distribution of time spent in the clock gated state (Tick)
system.cpu1.power_state.ticksClkGated::3.5e+11-4e+11            1     50.00%    100.00% # Distribution of time spent in the clock gated state (Tick)
system.cpu1.power_state.ticksClkGated::min_value   2063551500                       # Distribution of time spent in the clock gated state (Tick)
system.cpu1.power_state.ticksClkGated::max_value 384523666500                       # Distribution of time spent in the clock gated state (Tick)
system.cpu1.power_state.ticksClkGated::total            2                       # Distribution of time spent in the clock gated state (Tick)
system.cpu1.power_state.pwrStateResidencyTicks::ON 1012618858000                       # Cumulative time (in ticks) in various power states (Tick)
system.cpu1.power_state.pwrStateResidencyTicks::CLK_GATED 386587218000                       # Cumulative time (in ticks) in various power states (Tick)
system.cpu1.thread_0.numInsts                       0                       # Number of Instructions committed (Count)
system.cpu1.thread_0.numOps                         0                       # Number of Ops committed (Count)
system.cpu1.thread_0.numMemRefs                     0                       # Number of Memory References (Count)
system.cpu2.numCycles                      2777850529                       # Number of cpu cycles simulated (Cycle)
system.cpu2.cpi                             36.715791                       # CPI: cycles per instruction (core level) ((Cycle/Count))
system.cpu2.ipc                              0.027236                       # IPC: instructions per cycle (core level) ((Count/Cycle))
system.cpu2.numWorkItemsStarted                     0                       # Number of work items this cpu started (Count)
system.cpu2.numWorkItemsCompleted                   0                       # Number of work items this cpu completed (Count)
system.cpu2.clk_domain.clock                      500                       # Clock period in ticks (Tick)
system.cpu2.clk_domain.voltage_domain.voltage            1                       # Voltage in Volts (Volt)
system.cpu2.commitStats0.numInsts            75658196                       # Number of instructions committed (thread level) (Count)
system.cpu2.commitStats0.numOps             147407189                       # Number of ops (including micro ops) committed (thread level) (Count)
system.cpu2.commitStats0.numInstsNotNOP             0                       # Number of instructions committed excluding NOPs or prefetches (Count)
system.cpu2.commitStats0.numOpsNotNOP               0                       # Number of Ops (including micro ops) Simulated (Count)
system.cpu2.commitStats0.cpi                36.715791                       # CPI: cycles per instruction (thread level) ((Cycle/Count))
system.cpu2.commitStats0.ipc                 0.027236                       # IPC: instructions per cycle (thread level) ((Count/Cycle))
system.cpu2.commitStats0.numMemRefs                 0                       # Number of memory references committed (Count)
system.cpu2.commitStats0.numFpInsts          34348404                       # Number of float instructions (Count)
system.cpu2.commitStats0.numIntInsts        124703424                       # Number of integer instructions (Count)
system.cpu2.commitStats0.numLoadInsts        19905822                       # Number of load instructions (Count)
system.cpu2.commitStats0.numStoreInsts        1459521                       # Number of store instructions (Count)
system.cpu2.commitStats0.numVecInsts                0                       # Number of vector instructions (Count)
system.cpu2.commitStats0.committedInstType::No_OpClass       846110      0.57%      0.57% # Class of committed instruction. (Count)
system.cpu2.commitStats0.committedInstType::IntAlu    100999198     68.52%     69.09% # Class of committed instruction. (Count)
system.cpu2.commitStats0.committedInstType::IntMult        13730      0.01%     69.10% # Class of committed instruction. (Count)
system.cpu2.commitStats0.committedInstType::IntDiv        32493      0.02%     69.12% # Class of committed instruction. (Count)
system.cpu2.commitStats0.committedInstType::FloatAdd      4052350      2.75%     71.87% # Class of committed instruction. (Count)
system.cpu2.commitStats0.committedInstType::FloatCmp            3      0.00%     71.87% # Class of committed instruction. (Count)
system.cpu2.commitStats0.committedInstType::FloatCvt          530      0.00%     71.87% # Class of committed instruction. (Count)
system.cpu2.commitStats0.committedInstType::FloatMult            1      0.00%     71.87% # Class of committed instruction. (Count)
system.cpu2.commitStats0.committedInstType::FloatMultAcc            0      0.00%     71.87% # Class of committed instruction. (Count)
system.cpu2.commitStats0.committedInstType::FloatDiv            1      0.00%     71.87% # Class of committed instruction. (Count)
system.cpu2.commitStats0.committedInstType::FloatMisc            0      0.00%     71.87% # Class of committed instruction. (Count)
system.cpu2.commitStats0.committedInstType::FloatSqrt            0      0.00%     71.87% # Class of committed instruction. (Count)
system.cpu2.commitStats0.committedInstType::SimdAdd          410      0.00%     71.87% # Class of committed instruction. (Count)
system.cpu2.commitStats0.committedInstType::SimdAddAcc            0      0.00%     71.87% # Class of committed instruction. (Count)
system.cpu2.commitStats0.committedInstType::SimdAlu      5173186      3.51%     75.38% # Class of committed instruction. (Count)
system.cpu2.commitStats0.committedInstType::SimdCmp           12      0.00%     75.38% # Class of committed instruction. (Count)
system.cpu2.commitStats0.committedInstType::SimdCvt          558      0.00%     75.38% # Class of committed instruction. (Count)
system.cpu2.commitStats0.committedInstType::SimdMisc      2589132      1.76%     77.14% # Class of committed instruction. (Count)
system.cpu2.commitStats0.committedInstType::SimdMult            0      0.00%     77.14% # Class of committed instruction. (Count)
system.cpu2.commitStats0.committedInstType::SimdMultAcc            0      0.00%     77.14% # Class of committed instruction. (Count)
system.cpu2.commitStats0.committedInstType::SimdMatMultAcc            0      0.00%     77.14% # Class of committed instruction. (Count)
system.cpu2.commitStats0.committedInstType::SimdShift          283      0.00%     77.14% # Class of committed instruction. (Count)
system.cpu2.commitStats0.committedInstType::SimdShiftAcc            0      0.00%     77.14% # Class of committed instruction. (Count)
system.cpu2.commitStats0.committedInstType::SimdDiv            0      0.00%     77.14% # Class of committed instruction. (Count)
system.cpu2.commitStats0.committedInstType::SimdSqrt            0      0.00%     77.14% # Class of committed instruction. (Count)
system.cpu2.commitStats0.committedInstType::SimdFloatAdd      2576615      1.75%     78.89% # Class of committed instruction. (Count)
system.cpu2.commitStats0.committedInstType::SimdFloatAlu            0      0.00%     78.89% # Class of committed instruction. (Count)
system.cpu2.commitStats0.committedInstType::SimdFloatCmp            0      0.00%     78.89% # Class of committed instruction. (Count)
system.cpu2.commitStats0.committedInstType::SimdFloatCvt      7177168      4.87%     83.76% # Class of committed instruction. (Count)
system.cpu2.commitStats0.committedInstType::SimdFloatDiv         1951      0.00%     83.76% # Class of committed instruction. (Count)
system.cpu2.commitStats0.committedInstType::SimdFloatMisc            0      0.00%     83.76% # Class of committed instruction. (Count)
system.cpu2.commitStats0.committedInstType::SimdFloatMult      2578115      1.75%     85.51% # Class of committed instruction. (Count)
system.cpu2.commitStats0.committedInstType::SimdFloatMultAcc            0      0.00%     85.51% # Class of committed instruction. (Count)
system.cpu2.commitStats0.committedInstType::SimdFloatMatMultAcc            0      0.00%     85.51% # Class of committed instruction. (Count)
system.cpu2.commitStats0.committedInstType::SimdFloatSqrt            0      0.00%     85.51% # Class of committed instruction. (Count)
system.cpu2.commitStats0.committedInstType::SimdReduceAdd            0      0.00%     85.51% # Class of committed instruction. (Count)
system.cpu2.commitStats0.committedInstType::SimdReduceAlu            0      0.00%     85.51% # Class of committed instruction. (Count)
system.cpu2.commitStats0.committedInstType::SimdReduceCmp            0      0.00%     85.51% # Class of committed instruction. (Count)
system.cpu2.commitStats0.committedInstType::SimdFloatReduceAdd            0      0.00%     85.51% # Class of committed instruction. (Count)
system.cpu2.commitStats0.committedInstType::SimdFloatReduceCmp            0      0.00%     85.51% # Class of committed instruction. (Count)
system.cpu2.commitStats0.committedInstType::SimdAes            0      0.00%     85.51% # Class of committed instruction. (Count)
system.cpu2.commitStats0.committedInstType::SimdAesMix            0      0.00%     85.51% # Class of committed instruction. (Count)
system.cpu2.commitStats0.committedInstType::SimdSha1Hash            0      0.00%     85.51% # Class of committed instruction. (Count)
system.cpu2.commitStats0.committedInstType::SimdSha1Hash2            0      0.00%     85.51% # Class of committed instruction. (Count)
system.cpu2.commitStats0.committedInstType::SimdSha256Hash            0      0.00%     85.51% # Class of committed instruction. (Count)
system.cpu2.commitStats0.committedInstType::SimdSha256Hash2            0      0.00%     85.51% # Class of committed instruction. (Count)
system.cpu2.commitStats0.committedInstType::SimdShaSigma2            0      0.00%     85.51% # Class of committed instruction. (Count)
system.cpu2.commitStats0.committedInstType::SimdShaSigma3            0      0.00%     85.51% # Class of committed instruction. (Count)
system.cpu2.commitStats0.committedInstType::SimdPredAlu            0      0.00%     85.51% # Class of committed instruction. (Count)
system.cpu2.commitStats0.committedInstType::Matrix            0      0.00%     85.51% # Class of committed instruction. (Count)
system.cpu2.commitStats0.committedInstType::MatrixMov            0      0.00%     85.51% # Class of committed instruction. (Count)
system.cpu2.commitStats0.committedInstType::MatrixOP            0      0.00%     85.51% # Class of committed instruction. (Count)
system.cpu2.commitStats0.committedInstType::MemRead      9958855      6.76%     92.26% # Class of committed instruction. (Count)
system.cpu2.commitStats0.committedInstType::MemWrite      1214233      0.82%     93.09% # Class of committed instruction. (Count)
system.cpu2.commitStats0.committedInstType::FloatMemRead      9946967      6.75%     99.83% # Class of committed instruction. (Count)
system.cpu2.commitStats0.committedInstType::FloatMemWrite       245288      0.17%    100.00% # Class of committed instruction. (Count)
system.cpu2.commitStats0.committedInstType::IprAccess            0      0.00%    100.00% # Class of committed instruction. (Count)
system.cpu2.commitStats0.committedInstType::InstPrefetch            0      0.00%    100.00% # Class of committed instruction. (Count)
system.cpu2.commitStats0.committedInstType::VectorUnitStrideLoad            0      0.00%    100.00% # Class of committed instruction. (Count)
system.cpu2.commitStats0.committedInstType::VectorUnitStrideStore            0      0.00%    100.00% # Class of committed instruction. (Count)
system.cpu2.commitStats0.committedInstType::VectorUnitStrideMaskLoad            0      0.00%    100.00% # Class of committed instruction. (Count)
system.cpu2.commitStats0.committedInstType::VectorUnitStrideMaskStore            0      0.00%    100.00% # Class of committed instruction. (Count)
system.cpu2.commitStats0.committedInstType::VectorStridedLoad            0      0.00%    100.00% # Class of committed instruction. (Count)
system.cpu2.commitStats0.committedInstType::VectorStridedStore            0      0.00%    100.00% # Class of committed instruction. (Count)
system.cpu2.commitStats0.committedInstType::VectorIndexedLoad            0      0.00%    100.00% # Class of committed instruction. (Count)
system.cpu2.commitStats0.committedInstType::VectorIndexedStore            0      0.00%    100.00% # Class of committed instruction. (Count)
system.cpu2.commitStats0.committedInstType::VectorUnitStrideFaultOnlyFirstLoad            0      0.00%    100.00% # Class of committed instruction. (Count)
system.cpu2.commitStats0.committedInstType::VectorWholeRegisterLoad            0      0.00%    100.00% # Class of committed instruction. (Count)
system.cpu2.commitStats0.committedInstType::VectorWholeRegisterStore            0      0.00%    100.00% # Class of committed instruction. (Count)
system.cpu2.commitStats0.committedInstType::VectorIntegerArith            0      0.00%    100.00% # Class of committed instruction. (Count)
system.cpu2.commitStats0.committedInstType::VectorFloatArith            0      0.00%    100.00% # Class of committed instruction. (Count)
system.cpu2.commitStats0.committedInstType::VectorFloatConvert            0      0.00%    100.00% # Class of committed instruction. (Count)
system.cpu2.commitStats0.committedInstType::VectorIntegerReduce            0      0.00%    100.00% # Class of committed instruction. (Count)
system.cpu2.commitStats0.committedInstType::VectorFloatReduce            0      0.00%    100.00% # Class of committed instruction. (Count)
system.cpu2.commitStats0.committedInstType::VectorMisc            0      0.00%    100.00% # Class of committed instruction. (Count)
system.cpu2.commitStats0.committedInstType::VectorIntegerExtension            0      0.00%    100.00% # Class of committed instruction. (Count)
system.cpu2.commitStats0.committedInstType::VectorConfig            0      0.00%    100.00% # Class of committed instruction. (Count)
system.cpu2.commitStats0.committedInstType::total    147407189                       # Class of committed instruction. (Count)
system.cpu2.commitStats0.committedControl::IsControl     18849225                       # Class of control type instructions committed (Count)
system.cpu2.commitStats0.committedControl::IsDirectControl     18517456                       # Class of control type instructions committed (Count)
system.cpu2.commitStats0.committedControl::IsIndirectControl       331726                       # Class of control type instructions committed (Count)
system.cpu2.commitStats0.committedControl::IsCondControl     16085395                       # Class of control type instructions committed (Count)
system.cpu2.commitStats0.committedControl::IsUncondControl      2763787                       # Class of control type instructions committed (Count)
system.cpu2.commitStats0.committedControl::IsCall       236735                       # Class of control type instructions committed (Count)
system.cpu2.commitStats0.committedControl::IsReturn       236725                       # Class of control type instructions committed (Count)
system.cpu2.exec_context.thread_0.numMatAluAccesses            0                       # Number of matrix alu accesses (Count)
system.cpu2.exec_context.thread_0.numCallsReturns       473460                       # Number of times a function call or return occured (Count)
system.cpu2.exec_context.thread_0.numMatInsts            0                       # Number of matrix instructions (Count)
system.cpu2.exec_context.thread_0.numIdleCycles 2471279728.130881                       # Number of idle cycles (Cycle)
system.cpu2.exec_context.thread_0.numBusyCycles 306570800.869119                       # Number of busy cycles (Cycle)
system.cpu2.exec_context.thread_0.notIdleFraction     0.110363                       # Percentage of non-idle cycles (Ratio)
system.cpu2.exec_context.thread_0.idleFraction     0.889637                       # Percentage of idle cycles (Ratio)
system.cpu2.executeStats0.numInsts                  0                       # Number of executed instructions (Count)
system.cpu2.executeStats0.numNop                    0                       # Number of nop insts executed (Count)
system.cpu2.executeStats0.numBranches               0                       # Number of branches executed (Count)
system.cpu2.executeStats0.numLoadInsts              0                       # Number of load instructions executed (Count)
system.cpu2.executeStats0.numStoreInsts      21365343                       # Number of stores executed (Count)
system.cpu2.executeStats0.instRate                  0                       # Inst execution rate ((Count/Cycle))
system.cpu2.executeStats0.numFpAluAccesses     34348404                       # Number of float alu accesses (Count)
system.cpu2.executeStats0.numFpRegReads      43021015                       # Number of times the floating registers were read (Count)
system.cpu2.executeStats0.numFpRegWrites     29504575                       # Number of times the floating registers were written (Count)
system.cpu2.executeStats0.numIntAluAccesses    124703424                       # Number of integer alu accesses (Count)
system.cpu2.executeStats0.numIntRegReads    132619145                       # Number of times the integer registers were read (Count)
system.cpu2.executeStats0.numIntRegWrites     80503118                       # Number of times the integer registers were written (Count)
system.cpu2.executeStats0.numMemRefs         21365343                       # Number of memory refs (Count)
system.cpu2.executeStats0.numMiscRegReads     66143547                       # Number of times the Misc registers were read (Count)
system.cpu2.executeStats0.numMiscRegWrites          329                       # Number of times the Misc registers were written (Count)
system.cpu2.executeStats0.numVecAluAccesses            0                       # Number of vector alu accesses (Count)
system.cpu2.executeStats0.numDiscardedOps            0                       # Number of ops (including micro ops) which were discarded before commit (Count)
system.cpu2.fetchStats0.numInsts             75658196                       # Number of instructions fetched (thread level) (Count)
system.cpu2.fetchStats0.numOps              147407189                       # Number of ops (including micro ops) fetched (thread level) (Count)
system.cpu2.fetchStats0.fetchRate            0.027236                       # Number of inst fetches per cycle ((Count/Cycle))
system.cpu2.fetchStats0.numBranches          18849225                       # Number of branches fetched (Count)
system.cpu2.fetchStats0.branchRate           0.006786                       # Number of branch fetches per cycle (Ratio)
system.cpu2.fetchStats0.numFetchSuspends            0                       # Number of times Execute suspended instruction fetching (Count)
system.cpu2.interrupts.clk_domain.clock          8000                       # Clock period in ticks (Tick)
system.cpu2.mmu.dtb.rdAccesses               19905853                       # TLB accesses on read requests (Count)
system.cpu2.mmu.dtb.wrAccesses                1459786                       # TLB accesses on write requests (Count)
system.cpu2.mmu.dtb.rdMisses                     1548                       # TLB misses on read requests (Count)
system.cpu2.mmu.dtb.wrMisses                      589                       # TLB misses on write requests (Count)
system.cpu2.mmu.dtb.walker.power_state.pwrStateResidencyTicks::UNDEFINED 1399206076000                       # Cumulative time (in ticks) in various power states (Tick)
system.cpu2.mmu.itb.rdAccesses                      0                       # TLB accesses on read requests (Count)
system.cpu2.mmu.itb.wrAccesses              106566091                       # TLB accesses on write requests (Count)
system.cpu2.mmu.itb.rdMisses                        0                       # TLB misses on read requests (Count)
system.cpu2.mmu.itb.wrMisses                     8817                       # TLB misses on write requests (Count)
system.cpu2.mmu.itb.walker.power_state.pwrStateResidencyTicks::UNDEFINED 1399206076000                       # Cumulative time (in ticks) in various power states (Tick)
system.cpu2.power_state.numTransitions           3047                       # Number of power state transitions (Count)
system.cpu2.power_state.ticksClkGated::samples         1524                       # Distribution of time spent in the clock gated state (Tick)
system.cpu2.power_state.ticksClkGated::mean 151953633.202100                       # Distribution of time spent in the clock gated state (Tick)
system.cpu2.power_state.ticksClkGated::stdev 444395799.819647                       # Distribution of time spent in the clock gated state (Tick)
system.cpu2.power_state.ticksClkGated::1000-5e+10         1524    100.00%    100.00% # Distribution of time spent in the clock gated state (Tick)
system.cpu2.power_state.ticksClkGated::min_value       326000                       # Distribution of time spent in the clock gated state (Tick)
system.cpu2.power_state.ticksClkGated::max_value  10280811500                       # Distribution of time spent in the clock gated state (Tick)
system.cpu2.power_state.ticksClkGated::total         1524                       # Distribution of time spent in the clock gated state (Tick)
system.cpu2.power_state.pwrStateResidencyTicks::ON 1167628739000                       # Cumulative time (in ticks) in various power states (Tick)
system.cpu2.power_state.pwrStateResidencyTicks::CLK_GATED 231577337000                       # Cumulative time (in ticks) in various power states (Tick)
system.cpu2.thread_0.numInsts                       0                       # Number of Instructions committed (Count)
system.cpu2.thread_0.numOps                         0                       # Number of Ops committed (Count)
system.cpu2.thread_0.numMemRefs                     0                       # Number of Memory References (Count)
system.cpu3.allLatencyDist::bucket_size         10000                       # delay distribution for all (Unspecified)
system.cpu3.allLatencyDist::min_bucket              0                       # delay distribution for all (Unspecified)
system.cpu3.allLatencyDist::max_bucket        1600000                       # delay distribution for all (Unspecified)
system.cpu3.allLatencyDist::samples          10693784                       # delay distribution for all (Unspecified)
system.cpu3.allLatencyDist::mean         493575.091848                       # delay distribution for all (Unspecified)
system.cpu3.allLatencyDist::stdev        457594.259464                       # delay distribution for all (Unspecified)
system.cpu3.allLatencyDist::underflows              0      0.00%      0.00% # delay distribution for all (Unspecified)
system.cpu3.allLatencyDist               |           0      0.00%      0.00% |           0      0.00%      0.00% |           0      0.00%      0.00% |           0      0.00%      0.00% |           0      0.00%      0.00% |           0      0.00%      0.00% |           0      0.00%      0.00% |           0      0.00%      0.00% |           0      0.00%      0.00% |           0      0.00%      0.00% |     1327380     12.41%     12.41% |      357373      3.34%     15.75% |      332240      3.11%     18.86% |      115132      1.08%     19.94% |       72574      0.68%     20.62% |       68305      0.64%     21.26% |       69609      0.65%     21.91% |      120811      1.13%     23.04% |      164047      1.53%     24.57% |      206055      1.93%     26.50% |      128641      1.20%     27.70% |      100147      0.94%     28.64% |       71819      0.67%     29.31% |       57193      0.53%     29.84% |       93561      0.87%     30.72% |       93563      0.87%     31.59% |       64437      0.60%     32.20% |       72845      0.68%     32.88% |       50267      0.47%     33.35% |       57677      0.54%     33.89% |       57150      0.53%     34.42% |       57294      0.54%     34.96% |       52304      0.49%     35.45% |       68804      0.64%     36.09% |      622597      5.82%     41.91% |      343722      3.21%     45.12% |      280886      2.63%     47.75% |      245056      2.29%     50.04% |      217468      2.03%     52.08% |      189932      1.78%     53.85% |      175101      1.64%     55.49% |      159461      1.49%     56.98% |      159592      1.49%     58.47% |      126497      1.18%     59.66% |      115143      1.08%     60.73% |      107454      1.00%     61.74% |       96714      0.90%     62.64% |       91129      0.85%     63.49% |       85028      0.80%     64.29% |       80603      0.75%     65.04% |       75119      0.70%     65.75% |       74606      0.70%     66.44% |       71340      0.67%     67.11% |       77634      0.73%     67.84% |       87092      0.81%     68.65% |       96626      0.90%     69.55% |       94125      0.88%     70.43% |      125855      1.18%     71.61% |      142115      1.33%     72.94% |      126959      1.19%     74.13% |      124641      1.17%     75.29% |      125072      1.17%     76.46% |      114679      1.07%     77.54% |       99279      0.93%     78.46% |       89769      0.84%     79.30% |       63998      0.60%     79.90% |       59457      0.56%     80.46% |       49379      0.46%     80.92% |       45447      0.42%     81.34% |       43972      0.41%     81.76% |       39154      0.37%     82.12% |       37858      0.35%     82.48% |       34330      0.32%     82.80% |       36386      0.34%     83.14% |       34202      0.32%     83.46% |       33080      0.31%     83.77% |       33763      0.32%     84.08% |       42351      0.40%     84.48% |       58988      0.55%     85.03% |       47854      0.45%     85.48% |       44756      0.42%     85.90% |       53078      0.50%     86.39% |       71097      0.66%     87.06% |       77115      0.72%     87.78% |       63173      0.59%     88.37% |       57960      0.54%     88.91% |       52790      0.49%     89.40% |       29299      0.27%     89.68% |       25363      0.24%     89.92% |       21675      0.20%     90.12% |       19117      0.18%     90.30% |       17695      0.17%     90.46% |       15983      0.15%     90.61% |       15099      0.14%     90.75% |       14019      0.13%     90.88% |       13769      0.13%     91.01% |       13009      0.12%     91.13% |       13425      0.13%     91.26% |       14165      0.13%     91.39% |       16226      0.15%     91.54% |       16684      0.16%     91.70% |       14585      0.14%     91.84% |       14415      0.13%     91.97% |       15118      0.14%     92.11% |       22578      0.21%     92.32% |       27852      0.26%     92.58% |       26025      0.24%     92.83% |       21325      0.20%     93.03% |       25650      0.24%     93.27% |       10930      0.10%     93.37% |        9846      0.09%     93.46% |        6900      0.06%     93.53% |        6050      0.06%     93.58% |        5482      0.05%     93.63% |        4960      0.05%     93.68% |        4588      0.04%     93.72% |        4401      0.04%     93.76% |        4621      0.04%     93.81% |        4201      0.04%     93.85% |        4584      0.04%     93.89% |        5508      0.05%     93.94% |       10937      0.10%     94.04% |        8205      0.08%     94.12% |        6303      0.06%     94.18% |        5636      0.05%     94.23% |        9716      0.09%     94.32% |       24069      0.23%     94.55% |       24368      0.23%     94.78% |       23106      0.22%     94.99% |       13009      0.12%     95.11% |       22767      0.21%     95.33% |        5316      0.05%     95.38% |        4850      0.05%     95.42% |        3030      0.03%     95.45% |        2477      0.02%     95.47% |        2192      0.02%     95.49% |        1886      0.02%     95.51% |        1911      0.02%     95.53% |        1648      0.02%     95.54% |        1850      0.02%     95.56% |        1725      0.02%     95.58% |        2166      0.02%     95.60% |        3294      0.03%     95.63% |        3803      0.04%     95.66% |        4536      0.04%     95.71% |        1994      0.02%     95.73% |        1701      0.02%     95.74% |        4442      0.04%     95.78% |       16696      0.16%     95.94% |       15258      0.14%     96.08% |       14103      0.13%     96.21% |        8178      0.08%     96.29% |       16134      0.15%     96.44% |        2341      0.02%     96.46% |        3022      0.03%     96.49% |        1197      0.01%     96.50% |         999      0.01%     96.51% |         867      0.01%     96.52% |         710      0.01%     96.53% |         784      0.01%     96.53% |          70      0.00%     96.53% # delay distribution for all (Unspecified)
system.cpu3.allLatencyDist::overflows          370631      3.47%    100.00% # delay distribution for all (Unspecified)
system.cpu3.allLatencyDist::min_value          105000                       # delay distribution for all (Unspecified)
system.cpu3.allLatencyDist::max_value         7826000                       # delay distribution for all (Unspecified)
system.cpu3.allLatencyDist::total            10693784                       # delay distribution for all (Unspecified)
system.cpu3.loadLatencyDist::bucket_size        10000                       # delay distribution for loads (Unspecified)
system.cpu3.loadLatencyDist::min_bucket             0                       # delay distribution for loads (Unspecified)
system.cpu3.loadLatencyDist::max_bucket       1600000                       # delay distribution for loads (Unspecified)
system.cpu3.loadLatencyDist::samples          9059414                       # delay distribution for loads (Unspecified)
system.cpu3.loadLatencyDist::mean        460832.053817                       # delay distribution for loads (Unspecified)
system.cpu3.loadLatencyDist::stdev       434921.953301                       # delay distribution for loads (Unspecified)
system.cpu3.loadLatencyDist::underflows             0      0.00%      0.00% # delay distribution for loads (Unspecified)
[...]
system.cpu3.cacheBlockRoundTrip7::overflows            0                       # Coalsr-to-coalsr time for the Nth cache block in an inst (Unspecified)
system.cpu3.cacheBlockRoundTrip7::min_value            0                       # Coalsr-to-coalsr time for the Nth cache block in an inst (Unspecified)
system.cpu3.cacheBlockRoundTrip7::max_value            0                       # Coalsr-to-coalsr time for the Nth cache block in an inst (Unspecified)
system.cpu3.cacheBlockRoundTrip7::total             0                       # Coalsr-to-coalsr time for the Nth cache block in an inst (Unspecified)
system.cpu3.cacheBlockRoundTrip8::bucket_size        10000                       # Coalsr-to-coalsr time for the Nth cache block in an inst (Unspecified)
system.cpu3.cacheBlockRoundTrip8::min_bucket            0                       # Coalsr-to-coalsr time for the Nth cache block in an inst (Unspecified)
system.cpu3.cacheBlockRoundTrip8::max_bucket      1600000                       # Coalsr-to-coalsr time for the Nth cache block in an inst (Unspecified)
system.cpu3.cacheBlockRoundTrip8::samples            0                       # Coalsr-to-coalsr time for the Nth cache block in an inst (Unspecified)
system.cpu3.cacheBlockRoundTrip8::mean            nan                       # Coalsr-to-coalsr time for the Nth cache block in an inst (Unspecified)
system.cpu3.cacheBlockRoundTrip8::stdev           nan                       # Coalsr-to-coalsr time for the Nth cache block in an inst (Unspecified)
system.cpu3.cacheBlockRoundTrip8::underflows            0                       # Coalsr-to-coalsr time for the Nth cache block in an inst (Unspecified)
system.cpu3.cacheBlockRoundTrip8         |           0                       |           0                       |           0                       |           0                       |           0                       |           0                       |           0                       |           0                       |           0                       |           0                       |           0                       |           0                       |           0                       |           0                       |           0                       |           0                       |           0                       |           0                       |           0                       |           0                       |           0                       |           0                       |           0                       |           0                       |           0                       |           0                       |           0                       |           0                       |           0                       |           0                       |           0                       |           0                       |           0                       |           0                       |           0                       |           0                       |           0                       |           0                       |           0                       |           0                       |           0                       |           0                       |           0                       |           0                       |           0                       |           0                       |           0                       |           0                       |           0                       |           0                       |           0                       |           0                       |           0                       |           0                       |           0                       |           0                       |           0                       |           0                       |           0                       |           0                       |           0                       |           0                       |           0                       |           0                       |           0                       |           0                       |           0                       |           0                       |           0                       |           0                       |           0                       |           0                       |           0                       |           0                       |           0                       |           0                       |           0                       |           0                       |           0                       |           0                       |           0                       |           0                       |           0                       |           0                       |           0                       |           0                       |           0                       |           0                       |           0                       |           0                       |           0                       |           0                       |           0                       |           0                       |           0                       |           0                       |           0                       |           0                       |           0                       |           0                       |           0                       |           0                       |           0                       |           0                       |           0                       |           0                       |           0                       |           0                       |           0                       |           0                       |           0                       |           0                       |           0                       |           0                       |           0                       |           0                       |           0                       |           0                       |           0                       |           0                       |           0                       |           0                       |           0                       |           0                       |           0                       |           0                       |           0                       |           0                       |           0                       |           0                       |           0                       |           0                       |           0                       |           0                       |           0                       |           0                       |           0                       |           0                       |           0                       |           0                       |           0                       |           0                       |           0                       |           0                       |           0                       |           0                       |           0                       |           0                       |           0                       |           0                       |           0                       |           0                       |           0                       |           0                       |           0                       |           0                       |           0                       |           0                       |           0                       |           0                       |           0                       # Coalsr-to-coalsr time for the Nth cache block in an inst (Unspecified)
system.cpu3.cacheBlockRoundTrip8::overflows            0                       # Coalsr-to-coalsr time for the Nth cache block in an inst (Unspecified)
system.cpu3.cacheBlockRoundTrip8::min_value            0                       # Coalsr-to-coalsr time for the Nth cache block in an inst (Unspecified)
system.cpu3.cacheBlockRoundTrip8::max_value            0                       # Coalsr-to-coalsr time for the Nth cache block in an inst (Unspecified)
system.cpu3.cacheBlockRoundTrip8::total             0                       # Coalsr-to-coalsr time for the Nth cache block in an inst (Unspecified)
system.cpu3.cacheBlockRoundTrip9::bucket_size        10000                       # Coalsr-to-coalsr time for the Nth cache block in an inst (Unspecified)
system.cpu3.cacheBlockRoundTrip9::min_bucket            0                       # Coalsr-to-coalsr time for the Nth cache block in an inst (Unspecified)
system.cpu3.cacheBlockRoundTrip9::max_bucket      1600000                       # Coalsr-to-coalsr time for the Nth cache block in an inst (Unspecified)
system.cpu3.cacheBlockRoundTrip9::samples            0                       # Coalsr-to-coalsr time for the Nth cache block in an inst (Unspecified)
system.cpu3.cacheBlockRoundTrip9::mean            nan                       # Coalsr-to-coalsr time for the Nth cache block in an inst (Unspecified)
system.cpu3.cacheBlockRoundTrip9::stdev           nan                       # Coalsr-to-coalsr time for the Nth cache block in an inst (Unspecified)
system.cpu3.cacheBlockRoundTrip9::underflows            0                       # Coalsr-to-coalsr time for the Nth cache block in an inst (Unspecified)
system.cpu3.cacheBlockRoundTrip9         |           0                       |           0                       |           0                       |           0                       |           0                       |           0                       |           0                       |           0                       |           0                       |           0                       |           0                       |           0                       |           0                       |           0                       |           0                       |           0                       |           0                       |           0                       |           0                       |           0                       |           0                       |           0                       |           0                       |           0                       |           0                       |           0                       |           0                       |           0                       |           0                       |           0                       |           0                       |           0                       |           0                       |           0                       |           0                       |           0                       |           0                       |           0                       |           0                       |           0                       |           0                       |           0                       |           0                       |           0                       |           0                       |           0                       |           0                       |           0                       |           0                       |           0                       |           0                       |           0                       |           0                       |           0                       |           0                       |           0                       |           0                       |           0                       |           0                       |           0                       |           0                       |           0                       |           0                       |           0                       |           0                       |           0                       |           0                       |           0                       |           0                       |           0                       |           0                       |           0                       |           0                       |           0                       |           0                       |           0                       |           0                       |           0                       |           0                       |           0                       |           0                       |           0                       |           0                       |           0                       |           0                       |           0                       |           0                       |           0                       |           0                       |           0                       |           0                       |           0                       |           0                       |           0                       |           0                       |           0                       |           0                       |           0                       |           0                       |           0                       |           0                       |           0                       |           0                       |           0                       |           0                       |           0                       |           0                       |           0                       |           0                       |           0                       |           0                       |           0                       |           0                       |           0                       |           0                       |           0                       |           0                       |           0                       |           0                       |           0                       |           0                       |           0                       |           0                       |           0                       |           0                       |           0                       |           0                       |           0                       |           0                       |           0                       |           0                       |           0                       |           0                       |           0                       |           0                       |           0                       |           0                       |           0                       |           0                       |           0                       |           0                       |           0                       |           0                       |           0                       |           0                       |           0                       |           0                       |           0                       |           0                       |           0                       |           0                       |           0                       |           0                       |           0                       |           0                       |           0                       |           0                       |           0                       |           0                       |           0                       |           0                       # Coalsr-to-coalsr time for the Nth cache block in an inst (Unspecified)
system.cpu3.cacheBlockRoundTrip9::overflows            0                       # Coalsr-to-coalsr time for the Nth cache block in an inst (Unspecified)
system.cpu3.cacheBlockRoundTrip9::min_value            0                       # Coalsr-to-coalsr time for the Nth cache block in an inst (Unspecified)
system.cpu3.cacheBlockRoundTrip9::max_value            0                       # Coalsr-to-coalsr time for the Nth cache block in an inst (Unspecified)
system.cpu3.cacheBlockRoundTrip9::total             0                       # Coalsr-to-coalsr time for the Nth cache block in an inst (Unspecified)

---------- End Simulation Statistics   ----------
