
---------- Begin Simulation Statistics ----------
simSeconds                                   2.986806                       # Number of seconds simulated (Second)
simTicks                                 2986806024500                       # Number of ticks simulated (Tick)
finalTick                                2986806024500                       # Number of ticks from beginning of simulation (restored from checkpoints and never reset) (Tick)
simFreq                                  1000000000000                       # The number of ticks per simulated second ((Tick/Second))
hostSeconds                                   6118.86                       # Real time elapsed on the host (Second)
hostTickRate                                488131224                       # The number of ticks simulated per host second (ticks/s) ((Tick/Second))
hostMemory                                   20246524                       # Number of bytes of host memory used (Byte)
simInsts                                   1607402955                       # Number of instructions simulated (Count)
simOps                                     3628714595                       # Number of ops (including micro ops) simulated (Count)
hostInstRate                                   262697                       # Simulator instruction rate (inst/s) ((Count/Second))
hostOpRate                                     593038                       # Simulator op (including micro ops) rate (op/s) ((Count/Second))
system.work_item_type0::samples                     1                       # Run time stat forwork_item_type0 (Unspecified)
system.work_item_type0::mean             369033797500                       # Run time stat forwork_item_type0 (Unspecified)
system.work_item_type0::gmean            369033797499.999573                       # Run time stat forwork_item_type0 (Unspecified)
system.work_item_type0::stdev                     nan                       # Run time stat forwork_item_type0 (Unspecified)
system.work_item_type0::0-3.43597e+10               0      0.00%      0.00% # Run time stat forwork_item_type0 (Unspecified)
system.work_item_type0::3.43597e+10-6.87195e+10            0      0.00%      0.00% # Run time stat forwork_item_type0 (Unspecified)
system.work_item_type0::6.87195e+10-1.03079e+11            0      0.00%      0.00% # Run time stat forwork_item_type0 (Unspecified)
system.work_item_type0::1.03079e+11-1.37439e+11            0      0.00%      0.00% # Run time stat forwork_item_type0 (Unspecified)
system.work_item_type0::1.37439e+11-1.71799e+11            0      0.00%      0.00% # Run time stat forwork_item_type0 (Unspecified)
system.work_item_type0::1.71799e+11-2.06158e+11            0      0.00%      0.00% # Run time stat forwork_item_type0 (Unspecified)
system.work_item_type0::2.06158e+11-2.40518e+11            0      0.00%      0.00% # Run time stat forwork_item_type0 (Unspecified)
system.work_item_type0::2.40518e+11-2.74878e+11            0      0.00%      0.00% # Run time stat forwork_item_type0 (Unspecified)
system.work_item_type0::2.74878e+11-3.09238e+11            0      0.00%      0.00% # Run time stat forwork_item_type0 (Unspecified)
system.work_item_type0::3.09238e+11-3.43597e+11            0      0.00%      0.00% # Run time stat forwork_item_type0 (Unspecified)
system.work_item_type0::3.43597e+11-3.77957e+11            1    100.00%    100.00% # Run time stat forwork_item_type0 (Unspecified)
system.work_item_type0::3.77957e+11-4.12317e+11            0      0.00%    100.00% # Run time stat forwork_item_type0 (Unspecified)
system.work_item_type0::4.12317e+11-4.46677e+11            0      0.00%    100.00% # Run time stat forwork_item_type0 (Unspecified)
system.work_item_type0::4.46677e+11-4.81036e+11            0      0.00%    100.00% # Run time stat forwork_item_type0 (Unspecified)
system.work_item_type0::4.81036e+11-5.15396e+11            0      0.00%    100.00% # Run time stat forwork_item_type0 (Unspecified)
system.work_item_type0::5.15396e+11-5.49756e+11            0      0.00%    100.00% # Run time stat forwork_item_type0 (Unspecified)
system.work_item_type0::5.49756e+11-5.84116e+11            0      0.00%    100.00% # Run time stat forwork_item_type0 (Unspecified)
system.work_item_type0::5.84116e+11-6.18475e+11            0      0.00%    100.00% # Run time stat forwork_item_type0 (Unspecified)
system.work_item_type0::6.18475e+11-6.52835e+11            0      0.00%    100.00% # Run time stat forwork_item_type0 (Unspecified)
system.work_item_type0::6.52835e+11-6.87195e+11            0      0.00%    100.00% # Run time stat forwork_item_type0 (Unspecified)
system.work_item_type0::total                       1                       # Run time stat forwork_item_type0 (Unspecified)
system.clk_domain.clock                          1000                       # Clock period in ticks (Tick)
system.cpu0.numCycles                      5973612049                       # Number of cpu cycles simulated (Cycle)
system.cpu0.numWorkItemsStarted                     1                       # Number of work items this cpu started (Count)
system.cpu0.numWorkItemsCompleted                   1                       # Number of work items this cpu completed (Count)
system.cpu0.clk_domain.clock                      500                       # Clock period in ticks (Tick)
system.cpu0.clk_domain.voltage_domain.voltage            1                       # Voltage in Volts (Volt)
system.cpu0.exec_context.thread_0.numInsts   1603067760                       # Number of instructions committed (Count)
system.cpu0.exec_context.thread_0.numOps   3619789318                       # Number of ops (including micro ops) committed (Count)
system.cpu0.exec_context.thread_0.numIntAluAccesses   3377201284                       # Number of integer alu accesses (Count)
system.cpu0.exec_context.thread_0.numFpAluAccesses     46613955                       # Number of float alu accesses (Count)
system.cpu0.exec_context.thread_0.numVecAluAccesses            0                       # Number of vector alu accesses (Count)
system.cpu0.exec_context.thread_0.numCallsReturns     73389330                       # Number of times a function call or return occured (Count)
system.cpu0.exec_context.thread_0.numCondCtrlInsts    416023192                       # Number of instructions that are conditional controls (Count)
system.cpu0.exec_context.thread_0.numIntInsts   3377201284                       # Number of integer instructions (Count)
system.cpu0.exec_context.thread_0.numFpInsts     46613955                       # Number of float instructions (Count)
system.cpu0.exec_context.thread_0.numVecInsts            0                       # Number of vector instructions (Count)
system.cpu0.exec_context.thread_0.numIntRegReads   4372789584                       # Number of times the integer registers were read (Count)
system.cpu0.exec_context.thread_0.numIntRegWrites   2358220864                       # Number of times the integer registers were written (Count)
system.cpu0.exec_context.thread_0.numFpRegReads     64563208                       # Number of times the floating registers were read (Count)
system.cpu0.exec_context.thread_0.numFpRegWrites     33171712                       # Number of times the floating registers were written (Count)
system.cpu0.exec_context.thread_0.numVecRegReads            0                       # Number of times the vector registers were read (Count)
system.cpu0.exec_context.thread_0.numVecRegWrites            0                       # Number of times the vector registers were written (Count)
system.cpu0.exec_context.thread_0.numVecPredRegReads            0                       # Number of times the predicate registers were read (Count)
system.cpu0.exec_context.thread_0.numVecPredRegWrites            0                       # Number of times the predicate registers were written (Count)
system.cpu0.exec_context.thread_0.numCCRegReads   2523231111                       # Number of times the CC registers were read (Count)
system.cpu0.exec_context.thread_0.numCCRegWrites   1092140490                       # Number of times the CC registers were written (Count)
system.cpu0.exec_context.thread_0.numMiscRegReads   1467036888                       # Number of times the Misc registers were read (Count)
system.cpu0.exec_context.thread_0.numMiscRegWrites         4727                       # Number of times the Misc registers were written (Count)
system.cpu0.exec_context.thread_0.numMemRefs    635727038                       # Number of memory refs (Count)
system.cpu0.exec_context.thread_0.numLoadInsts    325257179                       # Number of load instructions (Count)
system.cpu0.exec_context.thread_0.numStoreInsts    310469859                       # Number of store instructions (Count)
system.cpu0.exec_context.thread_0.numIdleCycles 8393233.001997                       # Number of idle cycles (Cycle)
system.cpu0.exec_context.thread_0.numBusyCycles 5965218815.998003                       # Number of busy cycles (Cycle)
system.cpu0.exec_context.thread_0.notIdleFraction     0.998595                       # Percentage of non-idle cycles (Ratio)
system.cpu0.exec_context.thread_0.idleFraction     0.001405                       # Percentage of idle cycles (Ratio)
system.cpu0.exec_context.thread_0.numBranches    556269749                       # Number of branches fetched (Count)
system.cpu0.exec_context.thread_0.statExecutedInstType::No_OpClass     85838137      2.36%      2.36% # Class of executed instruction. (Count)
system.cpu0.exec_context.thread_0.statExecutedInstType::IntAlu   2876972872     79.08%     81.44% # Class of executed instruction. (Count)
system.cpu0.exec_context.thread_0.statExecutedInstType::IntMult     12324645      0.34%     81.78% # Class of executed instruction. (Count)
system.cpu0.exec_context.thread_0.statExecutedInstType::IntDiv        71174      0.00%     81.78% # Class of executed instruction. (Count)
system.cpu0.exec_context.thread_0.statExecutedInstType::FloatAdd      2302763      0.06%     81.85% # Class of executed instruction. (Count)
system.cpu0.exec_context.thread_0.statExecutedInstType::FloatCmp           66      0.00%     81.85% # Class of executed instruction. (Count)
system.cpu0.exec_context.thread_0.statExecutedInstType::FloatCvt         7196      0.00%     81.85% # Class of executed instruction. (Count)
system.cpu0.exec_context.thread_0.statExecutedInstType::FloatMult           22      0.00%     81.85% # Class of executed instruction. (Count)
system.cpu0.exec_context.thread_0.statExecutedInstType::FloatMultAcc            0      0.00%     81.85% # Class of executed instruction. (Count)
system.cpu0.exec_context.thread_0.statExecutedInstType::FloatDiv           22      0.00%     81.85% # Class of executed instruction. (Count)
system.cpu0.exec_context.thread_0.statExecutedInstType::FloatMisc            0      0.00%     81.85% # Class of executed instruction. (Count)
system.cpu0.exec_context.thread_0.statExecutedInstType::FloatSqrt            0      0.00%     81.85% # Class of executed instruction. (Count)
system.cpu0.exec_context.thread_0.statExecutedInstType::SimdAdd        19596      0.00%     81.85% # Class of executed instruction. (Count)
system.cpu0.exec_context.thread_0.statExecutedInstType::SimdAddAcc            0      0.00%     81.85% # Class of executed instruction. (Count)
system.cpu0.exec_context.thread_0.statExecutedInstType::SimdAlu      6021005      0.17%     82.01% # Class of executed instruction. (Count)
system.cpu0.exec_context.thread_0.statExecutedInstType::SimdCmp       283500      0.01%     82.02% # Class of executed instruction. (Count)
system.cpu0.exec_context.thread_0.statExecutedInstType::SimdCvt      5265332      0.14%     82.17% # Class of executed instruction. (Count)
system.cpu0.exec_context.thread_0.statExecutedInstType::SimdMisc     11318397      0.31%     82.48% # Class of executed instruction. (Count)
system.cpu0.exec_context.thread_0.statExecutedInstType::SimdMult            0      0.00%     82.48% # Class of executed instruction. (Count)
system.cpu0.exec_context.thread_0.statExecutedInstType::SimdMultAcc            0      0.00%     82.48% # Class of executed instruction. (Count)
system.cpu0.exec_context.thread_0.statExecutedInstType::SimdShift         9082      0.00%     82.48% # Class of executed instruction. (Count)
system.cpu0.exec_context.thread_0.statExecutedInstType::SimdShiftAcc            0      0.00%     82.48% # Class of executed instruction. (Count)
system.cpu0.exec_context.thread_0.statExecutedInstType::SimdDiv            0      0.00%     82.48% # Class of executed instruction. (Count)
system.cpu0.exec_context.thread_0.statExecutedInstType::SimdSqrt            0      0.00%     82.48% # Class of executed instruction. (Count)
system.cpu0.exec_context.thread_0.statExecutedInstType::SimdFloatAdd        92611      0.00%     82.48% # Class of executed instruction. (Count)
system.cpu0.exec_context.thread_0.statExecutedInstType::SimdFloatAlu            0      0.00%     82.48% # Class of executed instruction. (Count)
system.cpu0.exec_context.thread_0.statExecutedInstType::SimdFloatCmp            0      0.00%     82.48% # Class of executed instruction. (Count)
system.cpu0.exec_context.thread_0.statExecutedInstType::SimdFloatCvt      1452928      0.04%     82.52% # Class of executed instruction. (Count)
system.cpu0.exec_context.thread_0.statExecutedInstType::SimdFloatDiv            5      0.00%     82.52% # Class of executed instruction. (Count)
system.cpu0.exec_context.thread_0.statExecutedInstType::SimdFloatMisc            0      0.00%     82.52% # Class of executed instruction. (Count)
system.cpu0.exec_context.thread_0.statExecutedInstType::SimdFloatMult       185247      0.01%     82.52% # Class of executed instruction. (Count)
system.cpu0.exec_context.thread_0.statExecutedInstType::SimdFloatMultAcc            0      0.00%     82.52% # Class of executed instruction. (Count)
system.cpu0.exec_context.thread_0.statExecutedInstType::SimdFloatSqrt            0      0.00%     82.52% # Class of executed instruction. (Count)
system.cpu0.exec_context.thread_0.statExecutedInstType::SimdReduceAdd            0      0.00%     82.52% # Class of executed instruction. (Count)
system.cpu0.exec_context.thread_0.statExecutedInstType::SimdReduceAlu            0      0.00%     82.52% # Class of executed instruction. (Count)
system.cpu0.exec_context.thread_0.statExecutedInstType::SimdReduceCmp            0      0.00%     82.52% # Class of executed instruction. (Count)
system.cpu0.exec_context.thread_0.statExecutedInstType::SimdFloatReduceAdd            0      0.00%     82.52% # Class of executed instruction. (Count)
system.cpu0.exec_context.thread_0.statExecutedInstType::SimdFloatReduceCmp            0      0.00%     82.52% # Class of executed instruction. (Count)
system.cpu0.exec_context.thread_0.statExecutedInstType::SimdAes            0      0.00%     82.52% # Class of executed instruction. (Count)
system.cpu0.exec_context.thread_0.statExecutedInstType::SimdAesMix            0      0.00%     82.52% # Class of executed instruction. (Count)
system.cpu0.exec_context.thread_0.statExecutedInstType::SimdSha1Hash            0      0.00%     82.52% # Class of executed instruction. (Count)
system.cpu0.exec_context.thread_0.statExecutedInstType::SimdSha1Hash2            0      0.00%     82.52% # Class of executed instruction. (Count)
system.cpu0.exec_context.thread_0.statExecutedInstType::SimdSha256Hash            0      0.00%     82.52% # Class of executed instruction. (Count)
system.cpu0.exec_context.thread_0.statExecutedInstType::SimdSha256Hash2            0      0.00%     82.52% # Class of executed instruction. (Count)
system.cpu0.exec_context.thread_0.statExecutedInstType::SimdShaSigma2            0      0.00%     82.52% # Class of executed instruction. (Count)
system.cpu0.exec_context.thread_0.statExecutedInstType::SimdShaSigma3            0      0.00%     82.52% # Class of executed instruction. (Count)
system.cpu0.exec_context.thread_0.statExecutedInstType::SimdPredAlu            0      0.00%     82.52% # Class of executed instruction. (Count)
system.cpu0.exec_context.thread_0.statExecutedInstType::MemRead    316235344      8.69%     91.22% # Class of executed instruction. (Count)
system.cpu0.exec_context.thread_0.statExecutedInstType::MemWrite    302728321      8.32%     99.54% # Class of executed instruction. (Count)
system.cpu0.exec_context.thread_0.statExecutedInstType::FloatMemRead      9021835      0.25%     99.79% # Class of executed instruction. (Count)
system.cpu0.exec_context.thread_0.statExecutedInstType::FloatMemWrite      7741538      0.21%    100.00% # Class of executed instruction. (Count)
system.cpu0.exec_context.thread_0.statExecutedInstType::IprAccess            0      0.00%    100.00% # Class of executed instruction. (Count)
system.cpu0.exec_context.thread_0.statExecutedInstType::InstPrefetch            0      0.00%    100.00% # Class of executed instruction. (Count)
system.cpu0.exec_context.thread_0.statExecutedInstType::total   3637891638                       # Class of executed instruction. (Count)
system.cpu0.interrupts.clk_domain.clock          8000                       # Clock period in ticks (Tick)
system.cpu0.mmu.dtb.rdAccesses              325789530                       # TLB accesses on read requests (Count)
system.cpu0.mmu.dtb.wrAccesses              310572919                       # TLB accesses on write requests (Count)
system.cpu0.mmu.dtb.rdMisses                    28667                       # TLB misses on read requests (Count)
system.cpu0.mmu.dtb.wrMisses                    22896                       # TLB misses on write requests (Count)
system.cpu0.mmu.dtb.walker.power_state.pwrStateResidencyTicks::UNDEFINED 2986806024500                       # Cumulative time (in ticks) in various power states (Tick)
system.cpu0.mmu.itb.rdAccesses                      0                       # TLB accesses on read requests (Count)
system.cpu0.mmu.itb.wrAccesses             2133016055                       # TLB accesses on write requests (Count)
system.cpu0.mmu.itb.rdMisses                        0                       # TLB misses on read requests (Count)
system.cpu0.mmu.itb.wrMisses                     4536                       # TLB misses on write requests (Count)
system.cpu0.mmu.itb.walker.power_state.pwrStateResidencyTicks::UNDEFINED 2986806024500                       # Cumulative time (in ticks) in various power states (Tick)
system.cpu0.power_state.numTransitions              6                       # Number of power state transitions (Count)
system.cpu0.power_state.ticksClkGated::samples            3                       # Distribution of time spent in the clock gated state (Tick)
system.cpu0.power_state.ticksClkGated::mean 1398872166.666667                       # Distribution of time spent in the clock gated state (Tick)
system.cpu0.power_state.ticksClkGated::stdev 2326076549.254363                       # Distribution of time spent in the clock gated state (Tick)
system.cpu0.power_state.ticksClkGated::1000-5e+10            3    100.00%    100.00% # Distribution of time spent in the clock gated state (Tick)
system.cpu0.power_state.ticksClkGated::min_value     36756000                       # Distribution of time spent in the clock gated state (Tick)
system.cpu0.power_state.ticksClkGated::max_value   4084702500                       # Distribution of time spent in the clock gated state (Tick)
system.cpu0.power_state.ticksClkGated::total            3                       # Distribution of time spent in the clock gated state (Tick)
system.cpu0.power_state.pwrStateResidencyTicks::ON 2982609408000                       # Cumulative time (in ticks) in various power states (Tick)
system.cpu0.power_state.pwrStateResidencyTicks::CLK_GATED   4196616500                       # Cumulative time (in ticks) in various power states (Tick)
system.cpu0.thread_0.numInsts                       0                       # Number of Instructions committed (Count)
system.cpu0.thread_0.numOps                         0                       # Number of Ops committed (Count)
system.cpu0.thread_0.numMemRefs                     0                       # Number of Memory References (Count)
system.cpu0.workload.numSyscalls             18084107                       # Number of system calls (Count)
system.cpu0.workload.drivers0.device.dispatcher.numKernelLaunched           17                       # number of kernel launched (Unspecified)
system.cpu0.workload.drivers0.device.dispatcher.cyclesWaitingForDispatch        78509                       # number of cycles with outstanding wavefronts that are waiting to be dispatched (Unspecified)
system.cpu0.workload.drivers0.device.hsapp.power_state.pwrStateResidencyTicks::UNDEFINED 2986806024500                       # Cumulative time (in ticks) in various power states (Tick)
system.cpu0.workload.drivers0.device.hsapp.walker.power_state.pwrStateResidencyTicks::UNDEFINED 2986806024500                       # Cumulative time (in ticks) in various power states (Tick)
system.cpu0.workload.drivers0.device.power_state.pwrStateResidencyTicks::UNDEFINED 2986806024500                       # Cumulative time (in ticks) in various power states (Tick)
system.cpu0.workload.drivers0.device.walker.power_state.pwrStateResidencyTicks::UNDEFINED 2986806024500                       # Cumulative time (in ticks) in various power states (Tick)
system.cpu1.numCycles                      3244922480                       # Number of cpu cycles simulated (Cycle)
system.cpu1.numWorkItemsStarted                     0                       # Number of work items this cpu started (Count)
system.cpu1.numWorkItemsCompleted                   0                       # Number of work items this cpu completed (Count)
system.cpu1.clk_domain.clock                      500                       # Clock period in ticks (Tick)
system.cpu1.clk_domain.voltage_domain.voltage            1                       # Voltage in Volts (Volt)
system.cpu1.exec_context.thread_0.numInsts       345425                       # Number of instructions committed (Count)
system.cpu1.exec_context.thread_0.numOps       643312                       # Number of ops (including micro ops) committed (Count)
system.cpu1.exec_context.thread_0.numIntAluAccesses       619917                       # Number of integer alu accesses (Count)
system.cpu1.exec_context.thread_0.numFpAluAccesses        20246                       # Number of float alu accesses (Count)
system.cpu1.exec_context.thread_0.numVecAluAccesses            0                       # Number of vector alu accesses (Count)
system.cpu1.exec_context.thread_0.numCallsReturns        18108                       # Number of times a function call or return occured (Count)
system.cpu1.exec_context.thread_0.numCondCtrlInsts        89336                       # Number of instructions that are conditional controls (Count)
system.cpu1.exec_context.thread_0.numIntInsts       619917                       # Number of integer instructions (Count)
system.cpu1.exec_context.thread_0.numFpInsts        20246                       # Number of float instructions (Count)
system.cpu1.exec_context.thread_0.numVecInsts            0                       # Number of vector instructions (Count)
system.cpu1.exec_context.thread_0.numIntRegReads       675366                       # Number of times the integer registers were read (Count)
system.cpu1.exec_context.thread_0.numIntRegWrites       403033                       # Number of times the integer registers were written (Count)
system.cpu1.exec_context.thread_0.numFpRegReads        24366                       # Number of times the floating registers were read (Count)
system.cpu1.exec_context.thread_0.numFpRegWrites        16992                       # Number of times the floating registers were written (Count)
system.cpu1.exec_context.thread_0.numVecRegReads            0                       # Number of times the vector registers were read (Count)
system.cpu1.exec_context.thread_0.numVecRegWrites            0                       # Number of times the vector registers were written (Count)
system.cpu1.exec_context.thread_0.numVecPredRegReads            0                       # Number of times the predicate registers were read (Count)
system.cpu1.exec_context.thread_0.numVecPredRegWrites            0                       # Number of times the predicate registers were written (Count)
system.cpu1.exec_context.thread_0.numCCRegReads       546105                       # Number of times the CC registers were read (Count)
system.cpu1.exec_context.thread_0.numCCRegWrites       187204                       # Number of times the CC registers were written (Count)
system.cpu1.exec_context.thread_0.numMiscRegReads       373911                       # Number of times the Misc registers were read (Count)
system.cpu1.exec_context.thread_0.numMiscRegWrites           27                       # Number of times the Misc registers were written (Count)
system.cpu1.exec_context.thread_0.numMemRefs       158606                       # Number of memory refs (Count)
system.cpu1.exec_context.thread_0.numLoadInsts       143870                       # Number of load instructions (Count)
system.cpu1.exec_context.thread_0.numStoreInsts        14736                       # Number of store instructions (Count)
system.cpu1.exec_context.thread_0.numIdleCycles 3244195073.665592                       # Number of idle cycles (Cycle)
system.cpu1.exec_context.thread_0.numBusyCycles 727406.334409                       # Number of busy cycles (Cycle)
system.cpu1.exec_context.thread_0.notIdleFraction     0.000224                       # Percentage of non-idle cycles (Ratio)
system.cpu1.exec_context.thread_0.idleFraction     0.999776                       # Percentage of idle cycles (Ratio)
system.cpu1.exec_context.thread_0.numBranches       110126                       # Number of branches fetched (Count)
system.cpu1.exec_context.thread_0.statExecutedInstType::No_OpClass        10527      1.64%      1.64% # Class of executed instruction. (Count)
system.cpu1.exec_context.thread_0.statExecutedInstType::IntAlu       460066     71.51%     73.15% # Class of executed instruction. (Count)
system.cpu1.exec_context.thread_0.statExecutedInstType::IntMult            3      0.00%     73.15% # Class of executed instruction. (Count)
system.cpu1.exec_context.thread_0.statExecutedInstType::IntDiv           75      0.01%     73.16% # Class of executed instruction. (Count)
system.cpu1.exec_context.thread_0.statExecutedInstType::FloatAdd         2864      0.45%     73.61% # Class of executed instruction. (Count)
system.cpu1.exec_context.thread_0.statExecutedInstType::FloatCmp            0      0.00%     73.61% # Class of executed instruction. (Count)
system.cpu1.exec_context.thread_0.statExecutedInstType::FloatCvt           48      0.01%     73.62% # Class of executed instruction. (Count)
system.cpu1.exec_context.thread_0.statExecutedInstType::FloatMult            0      0.00%     73.62% # Class of executed instruction. (Count)
system.cpu1.exec_context.thread_0.statExecutedInstType::FloatMultAcc            0      0.00%     73.62% # Class of executed instruction. (Count)
system.cpu1.exec_context.thread_0.statExecutedInstType::FloatDiv            0      0.00%     73.62% # Class of executed instruction. (Count)
system.cpu1.exec_context.thread_0.statExecutedInstType::FloatMisc            0      0.00%     73.62% # Class of executed instruction. (Count)
system.cpu1.exec_context.thread_0.statExecutedInstType::FloatSqrt            0      0.00%     73.62% # Class of executed instruction. (Count)
system.cpu1.exec_context.thread_0.statExecutedInstType::SimdAdd           20      0.00%     73.62% # Class of executed instruction. (Count)
system.cpu1.exec_context.thread_0.statExecutedInstType::SimdAddAcc            0      0.00%     73.62% # Class of executed instruction. (Count)
system.cpu1.exec_context.thread_0.statExecutedInstType::SimdAlu         2756      0.43%     74.05% # Class of executed instruction. (Count)
system.cpu1.exec_context.thread_0.statExecutedInstType::SimdCmp            0      0.00%     74.05% # Class of executed instruction. (Count)
system.cpu1.exec_context.thread_0.statExecutedInstType::SimdCvt           40      0.01%     74.05% # Class of executed instruction. (Count)
system.cpu1.exec_context.thread_0.statExecutedInstType::SimdMisc         1543      0.24%     74.29% # Class of executed instruction. (Count)
system.cpu1.exec_context.thread_0.statExecutedInstType::SimdMult            0      0.00%     74.29% # Class of executed instruction. (Count)
system.cpu1.exec_context.thread_0.statExecutedInstType::SimdMultAcc            0      0.00%     74.29% # Class of executed instruction. (Count)
system.cpu1.exec_context.thread_0.statExecutedInstType::SimdShift           21      0.00%     74.30% # Class of executed instruction. (Count)
system.cpu1.exec_context.thread_0.statExecutedInstType::SimdShiftAcc            0      0.00%     74.30% # Class of executed instruction. (Count)
system.cpu1.exec_context.thread_0.statExecutedInstType::SimdDiv            0      0.00%     74.30% # Class of executed instruction. (Count)
system.cpu1.exec_context.thread_0.statExecutedInstType::SimdSqrt            0      0.00%     74.30% # Class of executed instruction. (Count)
system.cpu1.exec_context.thread_0.statExecutedInstType::SimdFloatAdd         1350      0.21%     74.51% # Class of executed instruction. (Count)
system.cpu1.exec_context.thread_0.statExecutedInstType::SimdFloatAlu            0      0.00%     74.51% # Class of executed instruction. (Count)
system.cpu1.exec_context.thread_0.statExecutedInstType::SimdFloatCmp            0      0.00%     74.51% # Class of executed instruction. (Count)
system.cpu1.exec_context.thread_0.statExecutedInstType::SimdFloatCvt         4044      0.63%     75.13% # Class of executed instruction. (Count)
system.cpu1.exec_context.thread_0.statExecutedInstType::SimdFloatDiv            7      0.00%     75.14% # Class of executed instruction. (Count)
system.cpu1.exec_context.thread_0.statExecutedInstType::SimdFloatMisc            0      0.00%     75.14% # Class of executed instruction. (Count)
system.cpu1.exec_context.thread_0.statExecutedInstType::SimdFloatMult         1351      0.21%     75.35% # Class of executed instruction. (Count)
system.cpu1.exec_context.thread_0.statExecutedInstType::SimdFloatMultAcc            0      0.00%     75.35% # Class of executed instruction. (Count)
system.cpu1.exec_context.thread_0.statExecutedInstType::SimdFloatSqrt            0      0.00%     75.35% # Class of executed instruction. (Count)
system.cpu1.exec_context.thread_0.statExecutedInstType::SimdReduceAdd            0      0.00%     75.35% # Class of executed instruction. (Count)
system.cpu1.exec_context.thread_0.statExecutedInstType::SimdReduceAlu            0      0.00%     75.35% # Class of executed instruction. (Count)
system.cpu1.exec_context.thread_0.statExecutedInstType::SimdReduceCmp            0      0.00%     75.35% # Class of executed instruction. (Count)
system.cpu1.exec_context.thread_0.statExecutedInstType::SimdFloatReduceAdd            0      0.00%     75.35% # Class of executed instruction. (Count)
system.cpu1.exec_context.thread_0.statExecutedInstType::SimdFloatReduceCmp            0      0.00%     75.35% # Class of executed instruction. (Count)
system.cpu1.exec_context.thread_0.statExecutedInstType::SimdAes            0      0.00%     75.35% # Class of executed instruction. (Count)
system.cpu1.exec_context.thread_0.statExecutedInstType::SimdAesMix            0      0.00%     75.35% # Class of executed instruction. (Count)
system.cpu1.exec_context.thread_0.statExecutedInstType::SimdSha1Hash            0      0.00%     75.35% # Class of executed instruction. (Count)
system.cpu1.exec_context.thread_0.statExecutedInstType::SimdSha1Hash2            0      0.00%     75.35% # Class of executed instruction. (Count)
system.cpu1.exec_context.thread_0.statExecutedInstType::SimdSha256Hash            0      0.00%     75.35% # Class of executed instruction. (Count)
system.cpu1.exec_context.thread_0.statExecutedInstType::SimdSha256Hash2            0      0.00%     75.35% # Class of executed instruction. (Count)
system.cpu1.exec_context.thread_0.statExecutedInstType::SimdShaSigma2            0      0.00%     75.35% # Class of executed instruction. (Count)
system.cpu1.exec_context.thread_0.statExecutedInstType::SimdShaSigma3            0      0.00%     75.35% # Class of executed instruction. (Count)
system.cpu1.exec_context.thread_0.statExecutedInstType::SimdPredAlu            0      0.00%     75.35% # Class of executed instruction. (Count)
system.cpu1.exec_context.thread_0.statExecutedInstType::MemRead       138319     21.50%     96.85% # Class of executed instruction. (Count)
system.cpu1.exec_context.thread_0.statExecutedInstType::MemWrite        14239      2.21%     99.06% # Class of executed instruction. (Count)
system.cpu1.exec_context.thread_0.statExecutedInstType::FloatMemRead         5551      0.86%     99.92% # Class of executed instruction. (Count)
system.cpu1.exec_context.thread_0.statExecutedInstType::FloatMemWrite          497      0.08%    100.00% # Class of executed instruction. (Count)
system.cpu1.exec_context.thread_0.statExecutedInstType::IprAccess            0      0.00%    100.00% # Class of executed instruction. (Count)
system.cpu1.exec_context.thread_0.statExecutedInstType::InstPrefetch            0      0.00%    100.00% # Class of executed instruction. (Count)
system.cpu1.exec_context.thread_0.statExecutedInstType::total       643321                       # Class of executed instruction. (Count)
system.cpu1.interrupts.clk_domain.clock          8000                       # Clock period in ticks (Tick)
system.cpu1.mmu.dtb.rdAccesses                 143870                       # TLB accesses on read requests (Count)
system.cpu1.mmu.dtb.wrAccesses                  14736                       # TLB accesses on write requests (Count)
system.cpu1.mmu.dtb.rdMisses                      153                       # TLB misses on read requests (Count)
system.cpu1.mmu.dtb.wrMisses                        3                       # TLB misses on write requests (Count)
system.cpu1.mmu.dtb.walker.power_state.pwrStateResidencyTicks::UNDEFINED 2986806024500                       # Cumulative time (in ticks) in various power states (Tick)
system.cpu1.mmu.itb.rdAccesses                      0                       # TLB accesses on read requests (Count)
system.cpu1.mmu.itb.wrAccesses                 456294                       # TLB accesses on write requests (Count)
system.cpu1.mmu.itb.rdMisses                        0                       # TLB misses on read requests (Count)
system.cpu1.mmu.itb.wrMisses                      128                       # TLB misses on write requests (Count)
system.cpu1.mmu.itb.walker.power_state.pwrStateResidencyTicks::UNDEFINED 2986806024500                       # Cumulative time (in ticks) in various power states (Tick)
system.cpu1.power_state.numTransitions              3                       # Number of power state transitions (Count)
system.cpu1.power_state.ticksClkGated::samples            2                       # Distribution of time spent in the clock gated state (Tick)
system.cpu1.power_state.ticksClkGated::mean 683555008250                       # Distribution of time spent in the clock gated state (Tick)
system.cpu1.power_state.ticksClkGated::stdev 962782134697.694824                       # Distribution of time spent in the clock gated state (Tick)
system.cpu1.power_state.ticksClkGated::1000-5e+10            1     50.00%     50.00% # Distribution of time spent in the clock gated state (Tick)
system.cpu1.power_state.ticksClkGated::overflows            1     50.00%    100.00% # Distribution of time spent in the clock gated state (Tick)
system.cpu1.power_state.ticksClkGated::min_value   2765232000                       # Distribution of time spent in the clock gated state (Tick)
system.cpu1.power_state.ticksClkGated::max_value 1364344784500                       # Distribution of time spent in the clock gated state (Tick)
system.cpu1.power_state.ticksClkGated::total            2                       # Distribution of time spent in the clock gated state (Tick)
system.cpu1.power_state.pwrStateResidencyTicks::ON 1619696008000                       # Cumulative time (in ticks) in various power states (Tick)
system.cpu1.power_state.pwrStateResidencyTicks::CLK_GATED 1367110016500                       # Cumulative time (in ticks) in various power states (Tick)
system.cpu1.thread_0.numInsts                       0                       # Number of Instructions committed (Count)
system.cpu1.thread_0.numOps                         0                       # Number of Ops committed (Count)
system.cpu1.thread_0.numMemRefs                     0                       # Number of Memory References (Count)
system.cpu2.numCycles                      3979962631                       # Number of cpu cycles simulated (Cycle)
system.cpu2.numWorkItemsStarted                     0                       # Number of work items this cpu started (Count)
system.cpu2.numWorkItemsCompleted                   0                       # Number of work items this cpu completed (Count)
system.cpu2.clk_domain.clock                      500                       # Clock period in ticks (Tick)
system.cpu2.clk_domain.voltage_domain.voltage            1                       # Voltage in Volts (Volt)
system.cpu2.exec_context.thread_0.numInsts      3989770                       # Number of instructions committed (Count)
system.cpu2.exec_context.thread_0.numOps      8281965                       # Number of ops (including micro ops) committed (Count)
system.cpu2.exec_context.thread_0.numIntAluAccesses      8118068                       # Number of integer alu accesses (Count)
system.cpu2.exec_context.thread_0.numFpAluAccesses      2714780                       # Number of float alu accesses (Count)
system.cpu2.exec_context.thread_0.numVecAluAccesses            0                       # Number of vector alu accesses (Count)
system.cpu2.exec_context.thread_0.numCallsReturns        56524                       # Number of times a function call or return occured (Count)
system.cpu2.exec_context.thread_0.numCondCtrlInsts       399024                       # Number of instructions that are conditional controls (Count)
system.cpu2.exec_context.thread_0.numIntInsts      8118068                       # Number of integer instructions (Count)
system.cpu2.exec_context.thread_0.numFpInsts      2714780                       # Number of float instructions (Count)
system.cpu2.exec_context.thread_0.numVecInsts            0                       # Number of vector instructions (Count)
system.cpu2.exec_context.thread_0.numIntRegReads      8625321                       # Number of times the integer registers were read (Count)
system.cpu2.exec_context.thread_0.numIntRegWrites      3432024                       # Number of times the integer registers were written (Count)
system.cpu2.exec_context.thread_0.numFpRegReads      1468161                       # Number of times the floating registers were read (Count)
system.cpu2.exec_context.thread_0.numFpRegWrites      1396163                       # Number of times the floating registers were written (Count)
system.cpu2.exec_context.thread_0.numVecRegReads            0                       # Number of times the vector registers were read (Count)
system.cpu2.exec_context.thread_0.numVecRegWrites            0                       # Number of times the vector registers were written (Count)
system.cpu2.exec_context.thread_0.numVecPredRegReads            0                       # Number of times the predicate registers were read (Count)
system.cpu2.exec_context.thread_0.numVecPredRegWrites            0                       # Number of times the predicate registers were written (Count)
system.cpu2.exec_context.thread_0.numCCRegReads      2528330                       # Number of times the CC registers were read (Count)
system.cpu2.exec_context.thread_0.numCCRegWrites      2158102                       # Number of times the CC registers were written (Count)
system.cpu2.exec_context.thread_0.numMiscRegReads      5196975                       # Number of times the Misc registers were read (Count)
system.cpu2.exec_context.thread_0.numMiscRegWrites          329                       # Number of times the Misc registers were written (Count)
system.cpu2.exec_context.thread_0.numMemRefs      4169850                       # Number of memory refs (Count)
system.cpu2.exec_context.thread_0.numLoadInsts      1994856                       # Number of load instructions (Count)
system.cpu2.exec_context.thread_0.numStoreInsts      2174994                       # Number of store instructions (Count)
system.cpu2.exec_context.thread_0.numIdleCycles 3889675919.044150                       # Number of idle cycles (Cycle)
system.cpu2.exec_context.thread_0.numBusyCycles 90286711.955850                       # Number of busy cycles (Cycle)
system.cpu2.exec_context.thread_0.notIdleFraction     0.022685                       # Percentage of non-idle cycles (Ratio)
system.cpu2.exec_context.thread_0.idleFraction     0.977315                       # Percentage of idle cycles (Ratio)
system.cpu2.exec_context.thread_0.numBranches       495118                       # Number of branches fetched (Count)
system.cpu2.exec_context.thread_0.statExecutedInstType::No_OpClass       679023      7.61%      7.61% # Class of executed instruction. (Count)
system.cpu2.exec_context.thread_0.statExecutedInstType::IntAlu      3974231     44.54%     52.15% # Class of executed instruction. (Count)
system.cpu2.exec_context.thread_0.statExecutedInstType::IntMult         1413      0.02%     52.17% # Class of executed instruction. (Count)
system.cpu2.exec_context.thread_0.statExecutedInstType::IntDiv         2201      0.02%     52.19% # Class of executed instruction. (Count)
system.cpu2.exec_context.thread_0.statExecutedInstType::FloatAdd        16702      0.19%     52.38% # Class of executed instruction. (Count)
system.cpu2.exec_context.thread_0.statExecutedInstType::FloatCmp            3      0.00%     52.38% # Class of executed instruction. (Count)
system.cpu2.exec_context.thread_0.statExecutedInstType::FloatCvt          530      0.01%     52.39% # Class of executed instruction. (Count)
system.cpu2.exec_context.thread_0.statExecutedInstType::FloatMult            1      0.00%     52.39% # Class of executed instruction. (Count)
system.cpu2.exec_context.thread_0.statExecutedInstType::FloatMultAcc            0      0.00%     52.39% # Class of executed instruction. (Count)
system.cpu2.exec_context.thread_0.statExecutedInstType::FloatDiv            1      0.00%     52.39% # Class of executed instruction. (Count)
system.cpu2.exec_context.thread_0.statExecutedInstType::FloatMisc            0      0.00%     52.39% # Class of executed instruction. (Count)
system.cpu2.exec_context.thread_0.statExecutedInstType::FloatSqrt            0      0.00%     52.39% # Class of executed instruction. (Count)
system.cpu2.exec_context.thread_0.statExecutedInstType::SimdAdd          410      0.00%     52.39% # Class of executed instruction. (Count)
system.cpu2.exec_context.thread_0.statExecutedInstType::SimdAddAcc            0      0.00%     52.39% # Class of executed instruction. (Count)
system.cpu2.exec_context.thread_0.statExecutedInstType::SimdAlu        24516      0.27%     52.67% # Class of executed instruction. (Count)
system.cpu2.exec_context.thread_0.statExecutedInstType::SimdCmp           12      0.00%     52.67% # Class of executed instruction. (Count)
system.cpu2.exec_context.thread_0.statExecutedInstType::SimdCvt          558      0.01%     52.67% # Class of executed instruction. (Count)
system.cpu2.exec_context.thread_0.statExecutedInstType::SimdMisc         9784      0.11%     52.78% # Class of executed instruction. (Count)
system.cpu2.exec_context.thread_0.statExecutedInstType::SimdMult            0      0.00%     52.78% # Class of executed instruction. (Count)
system.cpu2.exec_context.thread_0.statExecutedInstType::SimdMultAcc            0      0.00%     52.78% # Class of executed instruction. (Count)
system.cpu2.exec_context.thread_0.statExecutedInstType::SimdShift          283      0.00%     52.79% # Class of executed instruction. (Count)
system.cpu2.exec_context.thread_0.statExecutedInstType::SimdShiftAcc            0      0.00%     52.79% # Class of executed instruction. (Count)
system.cpu2.exec_context.thread_0.statExecutedInstType::SimdDiv            0      0.00%     52.79% # Class of executed instruction. (Count)
system.cpu2.exec_context.thread_0.statExecutedInstType::SimdSqrt            0      0.00%     52.79% # Class of executed instruction. (Count)
system.cpu2.exec_context.thread_0.statExecutedInstType::SimdFloatAdd         8683      0.10%     52.88% # Class of executed instruction. (Count)
system.cpu2.exec_context.thread_0.statExecutedInstType::SimdFloatAlu            0      0.00%     52.88% # Class of executed instruction. (Count)
system.cpu2.exec_context.thread_0.statExecutedInstType::SimdFloatCmp            0      0.00%     52.88% # Class of executed instruction. (Count)
system.cpu2.exec_context.thread_0.statExecutedInstType::SimdFloatCvt        25224      0.28%     53.17% # Class of executed instruction. (Count)
system.cpu2.exec_context.thread_0.statExecutedInstType::SimdFloatDiv            7      0.00%     53.17% # Class of executed instruction. (Count)
system.cpu2.exec_context.thread_0.statExecutedInstType::SimdFloatMisc            0      0.00%     53.17% # Class of executed instruction. (Count)
system.cpu2.exec_context.thread_0.statExecutedInstType::SimdFloatMult         8687      0.10%     53.26% # Class of executed instruction. (Count)
system.cpu2.exec_context.thread_0.statExecutedInstType::SimdFloatMultAcc            0      0.00%     53.26% # Class of executed instruction. (Count)
system.cpu2.exec_context.thread_0.statExecutedInstType::SimdFloatSqrt            0      0.00%     53.26% # Class of executed instruction. (Count)
system.cpu2.exec_context.thread_0.statExecutedInstType::SimdReduceAdd            0      0.00%     53.26% # Class of executed instruction. (Count)
system.cpu2.exec_context.thread_0.statExecutedInstType::SimdReduceAlu            0      0.00%     53.26% # Class of executed instruction. (Count)
system.cpu2.exec_context.thread_0.statExecutedInstType::SimdReduceCmp            0      0.00%     53.26% # Class of executed instruction. (Count)
system.cpu2.exec_context.thread_0.statExecutedInstType::SimdFloatReduceAdd            0      0.00%     53.26% # Class of executed instruction. (Count)
system.cpu2.exec_context.thread_0.statExecutedInstType::SimdFloatReduceCmp            0      0.00%     53.26% # Class of executed instruction. (Count)
system.cpu2.exec_context.thread_0.statExecutedInstType::SimdAes            0      0.00%     53.26% # Class of executed instruction. (Count)
system.cpu2.exec_context.thread_0.statExecutedInstType::SimdAesMix            0      0.00%     53.26% # Class of executed instruction. (Count)
system.cpu2.exec_context.thread_0.statExecutedInstType::SimdSha1Hash            0      0.00%     53.26% # Class of executed instruction. (Count)
system.cpu2.exec_context.thread_0.statExecutedInstType::SimdSha1Hash2            0      0.00%     53.26% # Class of executed instruction. (Count)
system.cpu2.exec_context.thread_0.statExecutedInstType::SimdSha256Hash            0      0.00%     53.26% # Class of executed instruction. (Count)
system.cpu2.exec_context.thread_0.statExecutedInstType::SimdSha256Hash2            0      0.00%     53.26% # Class of executed instruction. (Count)
system.cpu2.exec_context.thread_0.statExecutedInstType::SimdShaSigma2            0      0.00%     53.26% # Class of executed instruction. (Count)
system.cpu2.exec_context.thread_0.statExecutedInstType::SimdShaSigma3            0      0.00%     53.26% # Class of executed instruction. (Count)
system.cpu2.exec_context.thread_0.statExecutedInstType::SimdPredAlu            0      0.00%     53.26% # Class of executed instruction. (Count)
system.cpu2.exec_context.thread_0.statExecutedInstType::MemRead       677395      7.59%     60.86% # Class of executed instruction. (Count)
system.cpu2.exec_context.thread_0.statExecutedInstType::MemWrite       873748      9.79%     70.65% # Class of executed instruction. (Count)
system.cpu2.exec_context.thread_0.statExecutedInstType::FloatMemRead      1317461     14.77%     85.42% # Class of executed instruction. (Count)
system.cpu2.exec_context.thread_0.statExecutedInstType::FloatMemWrite      1301246     14.58%    100.00% # Class of executed instruction. (Count)
system.cpu2.exec_context.thread_0.statExecutedInstType::IprAccess            0      0.00%    100.00% # Class of executed instruction. (Count)
system.cpu2.exec_context.thread_0.statExecutedInstType::InstPrefetch            0      0.00%    100.00% # Class of executed instruction. (Count)
system.cpu2.exec_context.thread_0.statExecutedInstType::total      8922119                       # Class of executed instruction. (Count)
system.cpu2.interrupts.clk_domain.clock          8000                       # Clock period in ticks (Tick)
system.cpu2.mmu.dtb.rdAccesses                1994888                       # TLB accesses on read requests (Count)
system.cpu2.mmu.dtb.wrAccesses                2175259                       # TLB accesses on write requests (Count)
system.cpu2.mmu.dtb.rdMisses                     3608                       # TLB misses on read requests (Count)
system.cpu2.mmu.dtb.wrMisses                     3079                       # TLB misses on write requests (Count)
system.cpu2.mmu.dtb.walker.power_state.pwrStateResidencyTicks::UNDEFINED 2986806024500                       # Cumulative time (in ticks) in various power states (Tick)
system.cpu2.mmu.itb.rdAccesses                      0                       # TLB accesses on read requests (Count)
system.cpu2.mmu.itb.wrAccesses                6642520                       # TLB accesses on write requests (Count)
system.cpu2.mmu.itb.rdMisses                        0                       # TLB misses on read requests (Count)
system.cpu2.mmu.itb.wrMisses                      445                       # TLB misses on write requests (Count)
system.cpu2.mmu.itb.walker.power_state.pwrStateResidencyTicks::UNDEFINED 2986806024500                       # Cumulative time (in ticks) in various power states (Tick)
system.cpu2.power_state.numTransitions             21                       # Number of power state transitions (Count)
system.cpu2.power_state.ticksClkGated::samples           11                       # Distribution of time spent in the clock gated state (Tick)
system.cpu2.power_state.ticksClkGated::mean 118005644090.909088                       # Distribution of time spent in the clock gated state (Tick)
system.cpu2.power_state.ticksClkGated::stdev 304824564100.820679                       # Distribution of time spent in the clock gated state (Tick)
system.cpu2.power_state.ticksClkGated::1000-5e+10            9     81.82%     81.82% # Distribution of time spent in the clock gated state (Tick)
system.cpu2.power_state.ticksClkGated::2.5e+11-3e+11            1      9.09%     90.91% # Distribution of time spent in the clock gated state (Tick)
system.cpu2.power_state.ticksClkGated::9.5e+11-1e+12            1      9.09%    100.00% # Distribution of time spent in the clock gated state (Tick)
system.cpu2.power_state.ticksClkGated::min_value      3097500                       # Distribution of time spent in the clock gated state (Tick)
system.cpu2.power_state.ticksClkGated::max_value 996824709000                       # Distribution of time spent in the clock gated state (Tick)
system.cpu2.power_state.ticksClkGated::total           11                       # Distribution of time spent in the clock gated state (Tick)
system.cpu2.power_state.pwrStateResidencyTicks::ON 1688743939500                       # Cumulative time (in ticks) in various power states (Tick)
system.cpu2.power_state.pwrStateResidencyTicks::CLK_GATED 1298062085000                       # Cumulative time (in ticks) in various power states (Tick)
system.cpu2.thread_0.numInsts                       0                       # Number of Instructions committed (Count)
system.cpu2.thread_0.numOps                         0                       # Number of Ops committed (Count)
system.cpu2.thread_0.numMemRefs                     0                       # Number of Memory References (Count)
system.cpu3.allLatencyDist::bucket_size         10000                       # delay distribution for all (Unspecified)
system.cpu3.allLatencyDist::min_bucket              0                       # delay distribution for all (Unspecified)
system.cpu3.allLatencyDist::max_bucket        1600000                       # delay distribution for all (Unspecified)
system.cpu3.allLatencyDist::samples          12144616                       # delay distribution for all (Unspecified)
system.cpu3.allLatencyDist::mean         1528892.866765                       # delay distribution for all (Unspecified)
system.cpu3.allLatencyDist::stdev        1102542.451599                       # delay distribution for all (Unspecified)
system.cpu3.allLatencyDist::underflows              0      0.00%      0.00% # delay distribution for all (Unspecified)
system.cpu3.allLatencyDist               |           0      0.00%      0.00% |           0      0.00%      0.00% |           0      0.00%      0.00% |           0      0.00%      0.00% |           0      0.00%      0.00% |           0      0.00%      0.00% |           0      0.00%      0.00% |           0      0.00%      0.00% |           0      0.00%      0.00% |           0      0.00%      0.00% |       41035      0.34%      0.34% |        4044      0.03%      0.37% |        4471      0.04%      0.41% |        2996      0.02%      0.43% |        2409      0.02%      0.45% |        2304      0.02%      0.47% |        3650      0.03%      0.50% |       74188      0.61%      1.11% |       12536      0.10%      1.22% |       12327      0.10%      1.32% |       11295      0.09%      1.41% |        6898      0.06%      1.47% |        6167      0.05%      1.52% |        6368      0.05%      1.57% |        9372      0.08%      1.65% |        5985      0.05%      1.70% |        4715      0.04%      1.74% |        4442      0.04%      1.77% |        4071      0.03%      1.81% |        4987      0.04%      1.85% |        5397      0.04%      1.89% |        6167      0.05%      1.94% |        6352      0.05%      1.99% |        5916      0.05%      2.04% |       54503      0.45%      2.49% |       42662      0.35%      2.84% |       40250      0.33%      3.17% |       40293      0.33%      3.51% |       40343      0.33%      3.84% |       41428      0.34%      4.18% |       43728      0.36%      4.54% |       50865      0.42%      4.96% |       51744      0.43%      5.38% |       51792      0.43%      5.81% |       51699      0.43%      6.24% |       52101      0.43%      6.67% |       52974      0.44%      7.10% |       54304      0.45%      7.55% |       55637      0.46%      8.01% |       54966      0.45%      8.46% |       55239      0.45%      8.91% |       55685      0.46%      9.37% |       55810      0.46%      9.83% |       56849      0.47%     10.30% |       57034      0.47%     10.77% |       57966      0.48%     11.25% |       57408      0.47%     11.72% |       57528      0.47%     12.19% |       57612      0.47%     12.67% |       58339      0.48%     13.15% |       58607      0.48%     13.63% |       59472      0.49%     14.12% |       59979      0.49%     14.61% |       60131      0.50%     15.11% |       60771      0.50%     15.61% |       61736      0.51%     16.12% |       63001      0.52%     16.64% |       62941      0.52%     17.16% |       63276      0.52%     17.68% |       63791      0.53%     18.20% |       64694      0.53%     18.73% |       64969      0.53%     19.27% |       65478      0.54%     19.81% |       65430      0.54%     20.35% |       65717      0.54%     20.89% |       65676      0.54%     21.43% |       65537      0.54%     21.97% |       66859      0.55%     22.52% |       67239      0.55%     23.07% |       67459      0.56%     23.63% |       67153      0.55%     24.18% |       68077      0.56%     24.74% |       67817      0.56%     25.30% |       68322      0.56%     25.86% |       69479      0.57%     26.44% |       69690      0.57%     27.01% |       70155      0.58%     27.59% |       71036      0.58%     28.17% |       71468      0.59%     28.76% |       70474      0.58%     29.34% |       70777      0.58%     29.92% |       70305      0.58%     30.50% |       70723      0.58%     31.08% |       69945      0.58%     31.66% |       69788      0.57%     32.24% |       69794      0.57%     32.81% |       70226      0.58%     33.39% |       70148      0.58%     33.97% |       70334      0.58%     34.54% |       70603      0.58%     35.13% |       70643      0.58%     35.71% |       70150      0.58%     36.29% |       71155      0.59%     36.87% |       70526      0.58%     37.45% |       71294      0.59%     38.04% |       71147      0.59%     38.62% |       70317      0.58%     39.20% |       70574      0.58%     39.78% |       70027      0.58%     40.36% |       69870      0.58%     40.94% |       68670      0.57%     41.50% |       68735      0.57%     42.07% |       68250      0.56%     42.63% |       67404      0.56%     43.19% |       66643      0.55%     43.73% |       67091      0.55%     44.29% |       66562      0.55%     44.83% |       67085      0.55%     45.39% |       66912      0.55%     45.94% |       66741      0.55%     46.49% |       66611      0.55%     47.04% |       66114      0.54%     47.58% |       65835      0.54%     48.12% |       65931      0.54%     48.67% |       64701      0.53%     49.20% |       64470      0.53%     49.73% |       64006      0.53%     50.26% |       63599      0.52%     50.78% |       62750      0.52%     51.30% |       61398      0.51%     51.80% |       61761      0.51%     52.31% |       61370      0.51%     52.82% |       60067      0.49%     53.31% |       60050      0.49%     53.80% |       59759      0.49%     54.30% |       59484      0.49%     54.79% |       59491      0.49%     55.28% |       58292      0.48%     55.76% |       58879      0.48%     56.24% |       58097      0.48%     56.72% |       57389      0.47%     57.19% |       56646      0.47%     57.66% |       56609      0.47%     58.12% |       55849      0.46%     58.58% |       55026      0.45%     59.04% |       53996      0.44%     59.48% |       53649      0.44%     59.92% |       53294      0.44%     60.36% |       52512      0.43%     60.80% |       52013      0.43%     61.22% |       51353      0.42%     61.65% |       51127      0.42%     62.07% |       50662      0.42%     62.48% |       50037      0.41%     62.90% |       49804      0.41%     63.31% |       49071      0.40%     63.71% |       48770      0.40%     64.11% |       48195      0.40%     64.51% |       47444      0.39%     64.90% |       46344      0.38%     65.28% |        4593      0.04%     65.32% # delay distribution for all (Unspecified)
system.cpu3.allLatencyDist::overflows         4211844     34.68%    100.00% # delay distribution for all (Unspecified)
system.cpu3.allLatencyDist::min_value          105000                       # delay distribution for all (Unspecified)
system.cpu3.allLatencyDist::max_value        28294000                       # delay distribution for all (Unspecified)
system.cpu3.allLatencyDist::total            12144616                       # delay distribution for all (Unspecified)
system.cpu3.loadLatencyDist::bucket_size        10000                       # delay distribution for loads (Unspecified)
system.cpu3.loadLatencyDist::min_bucket             0                       # delay distribution for loads (Unspecified)
system.cpu3.loadLatencyDist::max_bucket       1600000                       # delay distribution for loads (Unspecified)
system.cpu3.loadLatencyDist::samples          9290171                       # delay distribution for loads (Unspecified)
system.cpu3.loadLatencyDist::mean        1586752.451596                       # delay distribution for loads (Unspecified)
system.cpu3.loadLatencyDist::stdev       1158511.645238                       # delay distribution for loads (Unspecified)
system.cpu3.loadLatencyDist::underflows             0      0.00%      0.00% # delay distribution for loads (Unspecified)
system.cpu3.loadLatencyDist              |           0      0.00%      0.00% |           0      0.00%      0.00% |           0      0.00%      0.00% |           0      0.00%      0.00% |           0      0.00%      0.00% |           0      0.00%      0.00% |           0      0.00%      0.00% |           0      0.00%      0.00% |           0      0.00%      0.00% |           0      0.00%      0.00% |       41035      0.44%      0.44% |        4044      0.04%      0.49% |        4471      0.05%      0.53% |        2996      0.03%      0.57% |        2409      0.03%      0.59% |        2304      0.02%      0.62% |        3650      0.04%      0.66% |       74188      0.80%      1.45% |       12536      0.13%      1.59% |       12327      0.13%      1.72% |       11295      0.12%      1.84% |        6898      0.07%      1.92% |        6167      0.07%      1.98% |        6368      0.07%      2.05% |        9372      0.10%      2.15% |        5985      0.06%      2.22% |        4715      0.05%      2.27% |        4442      0.05%      2.32% |        4068      0.04%      2.36% |        4987      0.05%      2.41% |        5395      0.06%      2.47% |        6167      0.07%      2.54% |        6350      0.07%      2.61% |        5913      0.06%      2.67% |       31511      0.34%      3.01% |       25513      0.27%      3.28% |       24549      0.26%      3.55% |       24764      0.27%      3.81% |       25023      0.27%      4.08% |       26095      0.28%      4.37% |       27985      0.30%      4.67% |       32900      0.35%      5.02% |       33896      0.36%      5.39% |       33931      0.37%      5.75% |       33872      0.36%      6.12% |       34378      0.37%      6.49% |       35378      0.38%      6.87% |       37009      0.40%      7.26% |       38369      0.41%      7.68% |       38119      0.41%      8.09% |       38330      0.41%      8.50% |       38876      0.42%      8.92% |       39012      0.42%      9.34% |       39954      0.43%      9.77% |       40111      0.43%     10.20% |       40677      0.44%     10.64% |       40420      0.44%     11.07% |       40386      0.43%     11.51% |       40458      0.44%     11.94% |       41178      0.44%     12.39% |       41352      0.45%     12.83% |       41986      0.45%     13.28% |       42389      0.46%     13.74% |       42572      0.46%     14.20% |       43136      0.46%     14.66% |       43932      0.47%     15.14% |       45108      0.49%     15.62% |       45068      0.49%     16.11% |       45571      0.49%     16.60% |       46119      0.50%     17.09% |       46666      0.50%     17.60% |       46944      0.51%     18.10% |       47325      0.51%     18.61% |       47277      0.51%     19.12% |       47459      0.51%     19.63% |       47379      0.51%     20.14% |       47350      0.51%     20.65% |       48204      0.52%     21.17% |       48498      0.52%     21.69% |       48834      0.53%     22.22% |       48754      0.52%     22.74% |       49534      0.53%     23.27% |       49349      0.53%     23.81% |       50077      0.54%     24.34% |       50936      0.55%     24.89% |       51226      0.55%     25.44% |       51596      0.56%     26.00% |       52348      0.56%     26.56% |       52541      0.57%     27.13% |       52008      0.56%     27.69% |       52206      0.56%     28.25% |       51898      0.56%     28.81% |       52180      0.56%     29.37% |       51483      0.55%     29.92% |       51377      0.55%     30.48% |       51467      0.55%     31.03% |       51704      0.56%     31.59% |       51565      0.56%     32.14% |       51930      0.56%     32.70% |       52197      0.56%     33.26% |       52566      0.57%     33.83% |       52222      0.56%     34.39% |       52961      0.57%     34.96% |       52615      0.57%     35.53% |       53137      0.57%     36.10% |       53096      0.57%     36.67% |       52455      0.56%     37.24% |       52731      0.57%     37.80% |       52432      0.56%     38.37% |       52259      0.56%     38.93% |       51345      0.55%     39.48% |       51406      0.55%     40.04% |       51069      0.55%     40.59% |       50414      0.54%     41.13% |       49915      0.54%     41.67% |       50268      0.54%     42.21% |       49975      0.54%     42.75% |       50427      0.54%     43.29% |       50555      0.54%     43.83% |       50441      0.54%     44.38% |       50508      0.54%     44.92% |       50145      0.54%     45.46% |       50053      0.54%     46.00% |       50039      0.54%     46.54% |       49210      0.53%     47.07% |       48919      0.53%     47.59% |       48691      0.52%     48.12% |       48145      0.52%     48.64% |       47642      0.51%     49.15% |       46952      0.51%     49.65% |       46945      0.51%     50.16% |       46861      0.50%     50.66% |       45879      0.49%     51.16% |       45956      0.49%     51.65% |       45692      0.49%     52.14% |       45668      0.49%     52.64% |       45599      0.49%     53.13% |       44793      0.48%     53.61% |       45289      0.49%     54.10% |       44743      0.48%     54.58% |       44178      0.48%     55.05% |       43772      0.47%     55.52% |       43702      0.47%     55.99% |       42982      0.46%     56.46% |       42461      0.46%     56.91% |       41603      0.45%     57.36% |       41368      0.45%     57.81% |       40985      0.44%     58.25% |       40491      0.44%     58.68% |       40172      0.43%     59.12% |       39908      0.43%     59.55% |       39558      0.43%     59.97% |       39206      0.42%     60.39% |       38927      0.42%     60.81% |       38753      0.42%     61.23% |       38244      0.41%     61.64% |       38229      0.41%     62.05% |       37598      0.40%     62.46% |       37050      0.40%     62.86% |       36296      0.39%     63.25% |        3576      0.04%     63.29% # delay distribution for loads (Unspecified)
system.cpu3.loadLatencyDist::overflows        3410773     36.71%    100.00% # delay distribution for loads (Unspecified)
system.cpu3.loadLatencyDist::min_value         105000                       # delay distribution for loads (Unspecified)
system.cpu3.loadLatencyDist::max_value       28294000                       # delay distribution for loads (Unspecified)
system.cpu3.loadLatencyDist::total            9290171                       # delay distribution for loads (Unspecified)
system.cpu3.storeLatencyDist::bucket_size        10000                       # delay distribution for stores (Unspecified)
system.cpu3.storeLatencyDist::min_bucket            0                       # delay distribution for stores (Unspecified)
system.cpu3.storeLatencyDist::max_bucket      1600000                       # delay distribution for stores (Unspecified)
system.cpu3.storeLatencyDist::samples         2854445                       # delay distribution for stores (Unspecified)
system.cpu3.storeLatencyDist::mean       1340581.150451                       # delay distribution for stores (Unspecified)
system.cpu3.storeLatencyDist::stdev      870270.907032                       # delay distribution for stores (Unspecified)
system.cpu3.storeLatencyDist::underflows            0      0.00%      0.00% # delay distribution for stores (Unspecified)
system.cpu3.storeLatencyDist             |           0      0.00%      0.00% |           0      0.00%      0.00% |           0      0.00%      0.00% |           0      0.00%      0.00% |           0      0.00%      0.00% |           0      0.00%      0.00% |           0      0.00%      0.00% |           0      0.00%      0.00% |           0      0.00%      0.00% |           0      0.00%      0.00% |           0      0.00%      0.00% |           0      0.00%      0.00% |           0      0.00%      0.00% |           0      0.00%      0.00% |           0      0.00%      0.00% |           0      0.00%      0.00% |           0      0.00%      0.00% |           0      0.00%      0.00% |           0      0.00%      0.00% |           0      0.00%      0.00% |           0      0.00%      0.00% |           0      0.00%      0.00% |           0      0.00%      0.00% |           0      0.00%      0.00% |           0      0.00%      0.00% |           0      0.00%      0.00% |           0      0.00%      0.00% |           0      0.00%      0.00% |           3      0.00%      0.00% |           0      0.00%      0.00% |           2      0.00%      0.00% |           0      0.00%      0.00% |           2      0.00%      0.00% |           3      0.00%      0.00% |       22992      0.81%      0.81% |       17149      0.60%      1.41% |       15701      0.55%      1.96% |       15529      0.54%      2.50% |       15320      0.54%      3.04% |       15333      0.54%      3.57% |       15743      0.55%      4.13% |       17965      0.63%      4.76% |       17848      0.63%      5.38% |       17861      0.63%      6.01% |       17827      0.62%      6.63% |       17723      0.62%      7.25% |       17596      0.62%      7.87% |       17295      0.61%      8.47% |       17268      0.60%      9.08% |       16847      0.59%      9.67% |       16909      0.59%     10.26% |       16809      0.59%     10.85% |       16798      0.59%     11.44% |       16895      0.59%     12.03% |       16923      0.59%     12.62% |       17289      0.61%     13.23% |       16988      0.60%     13.82% |       17142      0.60%     14.43% |       17154      0.60%     15.03% |       17161      0.60%     15.63% |       17255      0.60%     16.23% |       17486      0.61%     16.84% |       17590      0.62%     17.46% |       17559      0.62%     18.08% |       17635      0.62%     18.69% |       17804      0.62%     19.32% |       17893      0.63%     19.94% |       17873      0.63%     20.57% |       17705      0.62%     21.19% |       17672      0.62%     21.81% |       18028      0.63%     22.44% |       18025      0.63%     23.07% |       18153      0.64%     23.71% |       18153      0.64%     24.34% |       18258      0.64%     24.98% |       18297      0.64%     25.63% |       18187      0.64%     26.26% |       18655      0.65%     26.92% |       18741      0.66%     27.57% |       18625      0.65%     28.23% |       18399      0.64%     28.87% |       18543      0.65%     29.52% |       18468      0.65%     30.17% |       18245      0.64%     30.81% |       18543      0.65%     31.46% |       18464      0.65%     32.10% |       18559      0.65%     32.75% |       18688      0.65%     33.41% |       18927      0.66%     34.07% |       18466      0.65%     34.72% |       18571      0.65%     35.37% |       18407      0.64%     36.01% |       18543      0.65%     36.66% |       18462      0.65%     37.31% |       18411      0.64%     37.95% |       18327      0.64%     38.60% |       18522      0.65%     39.24% |       18583      0.65%     39.90% |       18404      0.64%     40.54% |       18406      0.64%     41.19% |       18077      0.63%     41.82% |       17928      0.63%     42.45% |       18194      0.64%     43.08% |       17911      0.63%     43.71% |       18157      0.64%     44.35% |       18051      0.63%     44.98% |       17862      0.63%     45.61% |       17843      0.63%     46.23% |       17595      0.62%     46.85% |       17611      0.62%     47.46% |       17325      0.61%     48.07% |       17329      0.61%     48.68% |       17181      0.60%     49.28% |       16990      0.60%     49.88% |       16728      0.59%     50.46% |       16823      0.59%     51.05% |       16587      0.58%     51.63% |       16658      0.58%     52.22% |       16357      0.57%     52.79% |       16300      0.57%     53.36% |       16103      0.56%     53.92% |       15969      0.56%     54.48% |       15782      0.55%     55.04% |       15892      0.56%     55.59% |       15491      0.54%     56.14% |       15551      0.54%     56.68% |       15315      0.54%     57.22% |       15454      0.54%     57.76% |       15108      0.53%     58.29% |       14446      0.51%     58.79% |       14816      0.52%     59.31% |       14509      0.51%     59.82% |       14188      0.50%     60.32% |       14094      0.49%     60.81% |       14067      0.49%     61.30% |       13816      0.48%     61.79% |       13892      0.49%     62.28% |       13499      0.47%     62.75% |       13590      0.48%     63.22% |       13354      0.47%     63.69% |       13211      0.46%     64.15% |       12874      0.45%     64.61% |       12907      0.45%     65.06% |       12867      0.45%     65.51% |       12565      0.44%     65.95% |       12393      0.43%     66.38% |       12281      0.43%     66.81% |       12309      0.43%     67.24% |       12021      0.42%     67.67% |       11841      0.41%     68.08% |       11445      0.40%     68.48% |       11569      0.41%     68.89% |       11456      0.40%     69.29% |       11110      0.39%     69.68% |       11051      0.39%     70.06% |       10827      0.38%     70.44% |       10541      0.37%     70.81% |       10597      0.37%     71.18% |       10394      0.36%     71.55% |       10048      0.35%     71.90% |        1017      0.04%     71.94% # delay distribution for stores (Unspecified)
system.cpu3.storeLatencyDist::overflows        801071     28.06%    100.00% # delay distribution for stores (Unspecified)
system.cpu3.storeLatencyDist::min_value        282000                       # delay distribution for stores (Unspecified)
system.cpu3.storeLatencyDist::max_value      26201000                       # delay distribution for stores (Unspecified)
system.cpu3.storeLatencyDist::total           2854445                       # delay distribution for stores (Unspecified)
system.cpu3.initToCoalesceLatency::bucket_size        10000                       # Ticks from vmem inst initiateAcc to coalescer issue (Unspecified)
system.cpu3.initToCoalesceLatency::min_bucket            0                       # Ticks from vmem inst initiateAcc to coalescer issue (Unspecified)
system.cpu3.initToCoalesceLatency::max_bucket      1600000                       # Ticks from vmem inst initiateAcc to coalescer issue (Unspecified)
system.cpu3.initToCoalesceLatency::samples            0                       # Ticks from vmem inst initiateAcc to coalescer issue (Unspecified)
system.cpu3.initToCoalesceLatency::mean           nan                       # Ticks from vmem inst initiateAcc to coalescer issue (Unspecified)
system.cpu3.initToCoalesceLatency::stdev          nan                       # Ticks from vmem inst initiateAcc to coalescer issue (Unspecified)
system.cpu3.initToCoalesceLatency::underflows            0                       # Ticks from vmem inst initiateAcc to coalescer issue (Unspecified)
[...]
system.cpu3.cacheBlockRoundTrip7::overflows            0                       # Coalsr-to-coalsr time for the Nth cache block in an inst (Unspecified)
system.cpu3.cacheBlockRoundTrip7::min_value            0                       # Coalsr-to-coalsr time for the Nth cache block in an inst (Unspecified)
system.cpu3.cacheBlockRoundTrip7::max_value            0                       # Coalsr-to-coalsr time for the Nth cache block in an inst (Unspecified)
system.cpu3.cacheBlockRoundTrip7::total             0                       # Coalsr-to-coalsr time for the Nth cache block in an inst (Unspecified)
system.cpu3.cacheBlockRoundTrip8::bucket_size        10000                       # Coalsr-to-coalsr time for the Nth cache block in an inst (Unspecified)
system.cpu3.cacheBlockRoundTrip8::min_bucket            0                       # Coalsr-to-coalsr time for the Nth cache block in an inst (Unspecified)
system.cpu3.cacheBlockRoundTrip8::max_bucket      1600000                       # Coalsr-to-coalsr time for the Nth cache block in an inst (Unspecified)
system.cpu3.cacheBlockRoundTrip8::samples            0                       # Coalsr-to-coalsr time for the Nth cache block in an inst (Unspecified)
system.cpu3.cacheBlockRoundTrip8::mean            nan                       # Coalsr-to-coalsr time for the Nth cache block in an inst (Unspecified)
system.cpu3.cacheBlockRoundTrip8::stdev           nan                       # Coalsr-to-coalsr time for the Nth cache block in an inst (Unspecified)
system.cpu3.cacheBlockRoundTrip8::underflows            0                       # Coalsr-to-coalsr time for the Nth cache block in an inst (Unspecified)
system.cpu3.cacheBlockRoundTrip8         |           0                       |           0                       |           0                       |           0                       |           0                       |           0                       |           0                       |           0                       |           0                       |           0                       |           0                       |           0                       |           0                       |           0                       |           0                       |           0                       |           0                       |           0                       |           0                       |           0                       |           0                       |           0                       |           0                       |           0                       |           0                       |           0                       |           0                       |           0                       |           0                       |           0                       |           0                       |           0                       |           0                       |           0                       |           0                       |           0                       |           0                       |           0                       |           0                       |           0                       |           0                       |           0                       |           0                       |           0                       |           0                       |           0                       |           0                       |           0                       |           0                       |           0                       |           0                       |           0                       |           0                       |           0                       |           0                       |           0                       |           0                       |           0                       |           0                       |           0                       |           0                       |           0                       |           0                       |           0                       |           0                       |           0                       |           0                       |           0                       |           0                       |           0                       |           0                       |           0                       |           0                       |           0                       |           0                       |           0                       |           0                       |           0                       |           0                       |           0                       |           0                       |           0                       |           0                       |           0                       |           0                       |           0                       |           0                       |           0                       |           0                       |           0                       |           0                       |           0                       |           0                       |           0                       |           0                       |           0                       |           0                       |           0                       |           0                       |           0                       |           0                       |           0                       |           0                       |           0                       |           0                       |           0                       |           0                       |           0                       |           0                       |           0                       |           0                       |           0                       |           0                       |           0                       |           0                       |           0                       |           0                       |           0                       |           0                       |           0                       |           0                       |           0                       |           0                       |           0                       |           0                       |           0                       |           0                       |           0                       |           0                       |           0                       |           0                       |           0                       |           0                       |           0                       |           0                       |           0                       |           0                       |           0                       |           0                       |           0                       |           0                       |           0                       |           0                       |           0                       |           0                       |           0                       |           0                       |           0                       |           0                       |           0                       |           0                       |           0                       |           0                       |           0                       |           0                       |           0                       |           0                       |           0                       |           0                       |           0                       |           0                       # Coalsr-to-coalsr time for the Nth cache block in an inst (Unspecified)
system.cpu3.cacheBlockRoundTrip8::overflows            0                       # Coalsr-to-coalsr time for the Nth cache block in an inst (Unspecified)
system.cpu3.cacheBlockRoundTrip8::min_value            0                       # Coalsr-to-coalsr time for the Nth cache block in an inst (Unspecified)
system.cpu3.cacheBlockRoundTrip8::max_value            0                       # Coalsr-to-coalsr time for the Nth cache block in an inst (Unspecified)
system.cpu3.cacheBlockRoundTrip8::total             0                       # Coalsr-to-coalsr time for the Nth cache block in an inst (Unspecified)
system.cpu3.cacheBlockRoundTrip9::bucket_size        10000                       # Coalsr-to-coalsr time for the Nth cache block in an inst (Unspecified)
system.cpu3.cacheBlockRoundTrip9::min_bucket            0                       # Coalsr-to-coalsr time for the Nth cache block in an inst (Unspecified)
system.cpu3.cacheBlockRoundTrip9::max_bucket      1600000                       # Coalsr-to-coalsr time for the Nth cache block in an inst (Unspecified)
system.cpu3.cacheBlockRoundTrip9::samples            0                       # Coalsr-to-coalsr time for the Nth cache block in an inst (Unspecified)
system.cpu3.cacheBlockRoundTrip9::mean            nan                       # Coalsr-to-coalsr time for the Nth cache block in an inst (Unspecified)
system.cpu3.cacheBlockRoundTrip9::stdev           nan                       # Coalsr-to-coalsr time for the Nth cache block in an inst (Unspecified)
system.cpu3.cacheBlockRoundTrip9::underflows            0                       # Coalsr-to-coalsr time for the Nth cache block in an inst (Unspecified)
system.cpu3.cacheBlockRoundTrip9         |           0                       |           0                       |           0                       |           0                       |           0                       |           0                       |           0                       |           0                       |           0                       |           0                       |           0                       |           0                       |           0                       |           0                       |           0                       |           0                       |           0                       |           0                       |           0                       |           0                       |           0                       |           0                       |           0                       |           0                       |           0                       |           0                       |           0                       |           0                       |           0                       |           0                       |           0                       |           0                       |           0                       |           0                       |           0                       |           0                       |           0                       |           0                       |           0                       |           0                       |           0                       |           0                       |           0                       |           0                       |           0                       |           0                       |           0                       |           0                       |           0                       |           0                       |           0                       |           0                       |           0                       |           0                       |           0                       |           0                       |           0                       |           0                       |           0                       |           0                       |           0                       |           0                       |           0                       |           0                       |           0                       |           0                       |           0                       |           0                       |           0                       |           0                       |           0                       |           0                       |           0                       |           0                       |           0                       |           0                       |           0                       |           0                       |           0                       |           0                       |           0                       |           0                       |           0                       |           0                       |           0                       |           0                       |           0                       |           0                       |           0                       |           0                       |           0                       |           0                       |           0                       |           0                       |           0                       |           0                       |           0                       |           0                       |           0                       |           0                       |           0                       |           0                       |           0                       |           0                       |           0                       |           0                       |           0                       |           0                       |           0                       |           0                       |           0                       |           0                       |           0                       |           0                       |           0                       |           0                       |           0                       |           0                       |           0                       |           0                       |           0                       |           0                       |           0                       |           0                       |           0                       |           0                       |           0                       |           0                       |           0                       |           0                       |           0                       |           0                       |           0                       |           0                       |           0                       |           0                       |           0                       |           0                       |           0                       |           0                       |           0                       |           0                       |           0                       |           0                       |           0                       |           0                       |           0                       |           0                       |           0                       |           0                       |           0                       |           0                       |           0                       |           0                       |           0                       |           0                       |           0                       |           0                       |           0                       |           0                       |           0                       # Coalsr-to-coalsr time for the Nth cache block in an inst (Unspecified)
system.cpu3.cacheBlockRoundTrip9::overflows            0                       # Coalsr-to-coalsr time for the Nth cache block in an inst (Unspecified)
system.cpu3.cacheBlockRoundTrip9::min_value            0                       # Coalsr-to-coalsr time for the Nth cache block in an inst (Unspecified)
system.cpu3.cacheBlockRoundTrip9::max_value            0                       # Coalsr-to-coalsr time for the Nth cache block in an inst (Unspecified)
system.cpu3.cacheBlockRoundTrip9::total             0                       # Coalsr-to-coalsr time for the Nth cache block in an inst (Unspecified)

---------- End Simulation Statistics   ----------
