
---------- Begin Simulation Statistics ----------
simSeconds                                   1.144005                       # Number of seconds simulated (Second)
simTicks                                 1144004978000                       # Number of ticks simulated (Tick)
finalTick                                1144004978000                       # Number of ticks from beginning of simulation (restored from checkpoints and never reset) (Tick)
simFreq                                  1000000000000                       # The number of ticks per simulated second ((Tick/Second))
hostSeconds                                   1521.46                       # Real time elapsed on the host (Second)
hostTickRate                                751911922                       # The number of ticks simulated per host second (ticks/s) ((Tick/Second))
hostMemory                                   22800412                       # Number of bytes of host memory used (Byte)
simInsts                                    482591898                       # Number of instructions simulated (Count)
simOps                                      903516978                       # Number of ops (including micro ops) simulated (Count)
hostInstRate                                   317190                       # Simulator instruction rate (inst/s) ((Count/Second))
hostOpRate                                     593848                       # Simulator op (including micro ops) rate (op/s) ((Count/Second))
system.work_item_type0::samples                     1                       # Run time stat forwork_item_type0 (Unspecified)
system.work_item_type0::mean              93327596000                       # Run time stat forwork_item_type0 (Unspecified)
system.work_item_type0::gmean            93327595999.999847                       # Run time stat forwork_item_type0 (Unspecified)
system.work_item_type0::stdev                     nan                       # Run time stat forwork_item_type0 (Unspecified)
system.work_item_type0::0-8.58993e+09               0      0.00%      0.00% # Run time stat forwork_item_type0 (Unspecified)
system.work_item_type0::8.58993e+09-1.71799e+10            0      0.00%      0.00% # Run time stat forwork_item_type0 (Unspecified)
system.work_item_type0::1.71799e+10-2.57698e+10            0      0.00%      0.00% # Run time stat forwork_item_type0 (Unspecified)
system.work_item_type0::2.57698e+10-3.43597e+10            0      0.00%      0.00% # Run time stat forwork_item_type0 (Unspecified)
system.work_item_type0::3.43597e+10-4.29497e+10            0      0.00%      0.00% # Run time stat forwork_item_type0 (Unspecified)
system.work_item_type0::4.29497e+10-5.15396e+10            0      0.00%      0.00% # Run time stat forwork_item_type0 (Unspecified)
system.work_item_type0::5.15396e+10-6.01295e+10            0      0.00%      0.00% # Run time stat forwork_item_type0 (Unspecified)
system.work_item_type0::6.01295e+10-6.87195e+10            0      0.00%      0.00% # Run time stat forwork_item_type0 (Unspecified)
system.work_item_type0::6.87195e+10-7.73094e+10            0      0.00%      0.00% # Run time stat forwork_item_type0 (Unspecified)
system.work_item_type0::7.73094e+10-8.58993e+10            0      0.00%      0.00% # Run time stat forwork_item_type0 (Unspecified)
system.work_item_type0::8.58993e+10-9.44893e+10            1    100.00%    100.00% # Run time stat forwork_item_type0 (Unspecified)
system.work_item_type0::9.44893e+10-1.03079e+11            0      0.00%    100.00% # Run time stat forwork_item_type0 (Unspecified)
system.work_item_type0::1.03079e+11-1.11669e+11            0      0.00%    100.00% # Run time stat forwork_item_type0 (Unspecified)
system.work_item_type0::1.11669e+11-1.20259e+11            0      0.00%    100.00% # Run time stat forwork_item_type0 (Unspecified)
system.work_item_type0::1.20259e+11-1.28849e+11            0      0.00%    100.00% # Run time stat forwork_item_type0 (Unspecified)
system.work_item_type0::1.28849e+11-1.37439e+11            0      0.00%    100.00% # Run time stat forwork_item_type0 (Unspecified)
system.work_item_type0::1.37439e+11-1.46029e+11            0      0.00%    100.00% # Run time stat forwork_item_type0 (Unspecified)
system.work_item_type0::1.46029e+11-1.54619e+11            0      0.00%    100.00% # Run time stat forwork_item_type0 (Unspecified)
system.work_item_type0::1.54619e+11-1.63209e+11            0      0.00%    100.00% # Run time stat forwork_item_type0 (Unspecified)
system.work_item_type0::1.63209e+11-1.71799e+11            0      0.00%    100.00% # Run time stat forwork_item_type0 (Unspecified)
system.work_item_type0::total                       1                       # Run time stat forwork_item_type0 (Unspecified)
system.clk_domain.clock                          1000                       # Clock period in ticks (Tick)
system.cpu0.numCycles                      2288009956                       # Number of cpu cycles simulated (Cycle)
system.cpu0.numWorkItemsStarted                     1                       # Number of work items this cpu started (Count)
system.cpu0.numWorkItemsCompleted                   1                       # Number of work items this cpu completed (Count)
system.cpu0.clk_domain.clock                      500                       # Clock period in ticks (Tick)
system.cpu0.clk_domain.voltage_domain.voltage            1                       # Voltage in Volts (Volt)
system.cpu0.exec_context.thread_0.numInsts    458856991                       # Number of instructions committed (Count)
system.cpu0.exec_context.thread_0.numOps    857232519                       # Number of ops (including micro ops) committed (Count)
system.cpu0.exec_context.thread_0.numIntAluAccesses    837271836                       # Number of integer alu accesses (Count)
system.cpu0.exec_context.thread_0.numFpAluAccesses     17960631                       # Number of float alu accesses (Count)
system.cpu0.exec_context.thread_0.numVecAluAccesses            0                       # Number of vector alu accesses (Count)
system.cpu0.exec_context.thread_0.numCallsReturns     23625956                       # Number of times a function call or return occured (Count)
system.cpu0.exec_context.thread_0.numCondCtrlInsts     76189742                       # Number of instructions that are conditional controls (Count)
system.cpu0.exec_context.thread_0.numIntInsts    837271836                       # Number of integer instructions (Count)
system.cpu0.exec_context.thread_0.numFpInsts     17960631                       # Number of float instructions (Count)
system.cpu0.exec_context.thread_0.numVecInsts            0                       # Number of vector instructions (Count)
system.cpu0.exec_context.thread_0.numIntRegReads   1004793235                       # Number of times the integer registers were read (Count)
system.cpu0.exec_context.thread_0.numIntRegWrites    572257570                       # Number of times the integer registers were written (Count)
system.cpu0.exec_context.thread_0.numFpRegReads     19161566                       # Number of times the floating registers were read (Count)
system.cpu0.exec_context.thread_0.numFpRegWrites     11521668                       # Number of times the floating registers were written (Count)
system.cpu0.exec_context.thread_0.numVecRegReads            0                       # Number of times the vector registers were read (Count)
system.cpu0.exec_context.thread_0.numVecRegWrites            0                       # Number of times the vector registers were written (Count)
system.cpu0.exec_context.thread_0.numVecPredRegReads            0                       # Number of times the predicate registers were read (Count)
system.cpu0.exec_context.thread_0.numVecPredRegWrites            0                       # Number of times the predicate registers were written (Count)
system.cpu0.exec_context.thread_0.numCCRegReads    509407984                       # Number of times the CC registers were read (Count)
system.cpu0.exec_context.thread_0.numCCRegWrites    246768498                       # Number of times the CC registers were written (Count)
system.cpu0.exec_context.thread_0.numMiscRegReads    408499309                       # Number of times the Misc registers were read (Count)
system.cpu0.exec_context.thread_0.numMiscRegWrites         4836                       # Number of times the Misc registers were written (Count)
system.cpu0.exec_context.thread_0.numMemRefs    188080096                       # Number of memory refs (Count)
system.cpu0.exec_context.thread_0.numLoadInsts    120006828                       # Number of load instructions (Count)
system.cpu0.exec_context.thread_0.numStoreInsts     68073268                       # Number of store instructions (Count)
system.cpu0.exec_context.thread_0.numIdleCycles 8372842.001993                       # Number of idle cycles (Cycle)
system.cpu0.exec_context.thread_0.numBusyCycles 2279637113.998007                       # Number of busy cycles (Cycle)
system.cpu0.exec_context.thread_0.notIdleFraction     0.996341                       # Percentage of non-idle cycles (Ratio)
system.cpu0.exec_context.thread_0.idleFraction     0.003659                       # Percentage of idle cycles (Ratio)
system.cpu0.exec_context.thread_0.numBranches    114752088                       # Number of branches fetched (Count)
system.cpu0.exec_context.thread_0.statExecutedInstType::No_OpClass     12704637      1.47%      1.47% # Class of executed instruction. (Count)
system.cpu0.exec_context.thread_0.statExecutedInstType::IntAlu    651545764     75.64%     77.11% # Class of executed instruction. (Count)
system.cpu0.exec_context.thread_0.statExecutedInstType::IntMult      1230349      0.14%     77.26% # Class of executed instruction. (Count)
system.cpu0.exec_context.thread_0.statExecutedInstType::IntDiv        99371      0.01%     77.27% # Class of executed instruction. (Count)
system.cpu0.exec_context.thread_0.statExecutedInstType::FloatAdd      1797859      0.21%     77.48% # Class of executed instruction. (Count)
system.cpu0.exec_context.thread_0.statExecutedInstType::FloatCmp           72      0.00%     77.48% # Class of executed instruction. (Count)
system.cpu0.exec_context.thread_0.statExecutedInstType::FloatCvt         7280      0.00%     77.48% # Class of executed instruction. (Count)
system.cpu0.exec_context.thread_0.statExecutedInstType::FloatMult           24      0.00%     77.48% # Class of executed instruction. (Count)
system.cpu0.exec_context.thread_0.statExecutedInstType::FloatMultAcc            0      0.00%     77.48% # Class of executed instruction. (Count)
system.cpu0.exec_context.thread_0.statExecutedInstType::FloatDiv           24      0.00%     77.48% # Class of executed instruction. (Count)
system.cpu0.exec_context.thread_0.statExecutedInstType::FloatMisc            0      0.00%     77.48% # Class of executed instruction. (Count)
system.cpu0.exec_context.thread_0.statExecutedInstType::FloatSqrt            0      0.00%     77.48% # Class of executed instruction. (Count)
system.cpu0.exec_context.thread_0.statExecutedInstType::SimdAdd        20212      0.00%     77.48% # Class of executed instruction. (Count)
system.cpu0.exec_context.thread_0.statExecutedInstType::SimdAddAcc            0      0.00%     77.48% # Class of executed instruction. (Count)
system.cpu0.exec_context.thread_0.statExecutedInstType::SimdAlu       916878      0.11%     77.59% # Class of executed instruction. (Count)
system.cpu0.exec_context.thread_0.statExecutedInstType::SimdCmp         3186      0.00%     77.59% # Class of executed instruction. (Count)
system.cpu0.exec_context.thread_0.statExecutedInstType::SimdCvt       663800      0.08%     77.66% # Class of executed instruction. (Count)
system.cpu0.exec_context.thread_0.statExecutedInstType::SimdMisc      3466181      0.40%     78.07% # Class of executed instruction. (Count)
system.cpu0.exec_context.thread_0.statExecutedInstType::SimdMult            0      0.00%     78.07% # Class of executed instruction. (Count)
system.cpu0.exec_context.thread_0.statExecutedInstType::SimdMultAcc            0      0.00%     78.07% # Class of executed instruction. (Count)
system.cpu0.exec_context.thread_0.statExecutedInstType::SimdShift         9201      0.00%     78.07% # Class of executed instruction. (Count)
system.cpu0.exec_context.thread_0.statExecutedInstType::SimdShiftAcc            0      0.00%     78.07% # Class of executed instruction. (Count)
system.cpu0.exec_context.thread_0.statExecutedInstType::SimdDiv            0      0.00%     78.07% # Class of executed instruction. (Count)
system.cpu0.exec_context.thread_0.statExecutedInstType::SimdSqrt            0      0.00%     78.07% # Class of executed instruction. (Count)
system.cpu0.exec_context.thread_0.statExecutedInstType::SimdFloatAdd        92616      0.01%     78.08% # Class of executed instruction. (Count)
system.cpu0.exec_context.thread_0.statExecutedInstType::SimdFloatAlu            0      0.00%     78.08% # Class of executed instruction. (Count)
system.cpu0.exec_context.thread_0.statExecutedInstType::SimdFloatCmp            0      0.00%     78.08% # Class of executed instruction. (Count)
system.cpu0.exec_context.thread_0.statExecutedInstType::SimdFloatCvt       555733      0.06%     78.14% # Class of executed instruction. (Count)
system.cpu0.exec_context.thread_0.statExecutedInstType::SimdFloatDiv            5      0.00%     78.14% # Class of executed instruction. (Count)
system.cpu0.exec_context.thread_0.statExecutedInstType::SimdFloatMisc            0      0.00%     78.14% # Class of executed instruction. (Count)
system.cpu0.exec_context.thread_0.statExecutedInstType::SimdFloatMult       185251      0.02%     78.17% # Class of executed instruction. (Count)
system.cpu0.exec_context.thread_0.statExecutedInstType::SimdFloatMultAcc            0      0.00%     78.17% # Class of executed instruction. (Count)
system.cpu0.exec_context.thread_0.statExecutedInstType::SimdFloatSqrt            0      0.00%     78.17% # Class of executed instruction. (Count)
system.cpu0.exec_context.thread_0.statExecutedInstType::SimdReduceAdd            0      0.00%     78.17% # Class of executed instruction. (Count)
system.cpu0.exec_context.thread_0.statExecutedInstType::SimdReduceAlu            0      0.00%     78.17% # Class of executed instruction. (Count)
system.cpu0.exec_context.thread_0.statExecutedInstType::SimdReduceCmp            0      0.00%     78.17% # Class of executed instruction. (Count)
system.cpu0.exec_context.thread_0.statExecutedInstType::SimdFloatReduceAdd            0      0.00%     78.17% # Class of executed instruction. (Count)
system.cpu0.exec_context.thread_0.statExecutedInstType::SimdFloatReduceCmp            0      0.00%     78.17% # Class of executed instruction. (Count)
system.cpu0.exec_context.thread_0.statExecutedInstType::SimdAes            0      0.00%     78.17% # Class of executed instruction. (Count)
system.cpu0.exec_context.thread_0.statExecutedInstType::SimdAesMix            0      0.00%     78.17% # Class of executed instruction. (Count)
system.cpu0.exec_context.thread_0.statExecutedInstType::SimdSha1Hash            0      0.00%     78.17% # Class of executed instruction. (Count)
system.cpu0.exec_context.thread_0.statExecutedInstType::SimdSha1Hash2            0      0.00%     78.17% # Class of executed instruction. (Count)
system.cpu0.exec_context.thread_0.statExecutedInstType::SimdSha256Hash            0      0.00%     78.17% # Class of executed instruction. (Count)
system.cpu0.exec_context.thread_0.statExecutedInstType::SimdSha256Hash2            0      0.00%     78.17% # Class of executed instruction. (Count)
system.cpu0.exec_context.thread_0.statExecutedInstType::SimdShaSigma2            0      0.00%     78.17% # Class of executed instruction. (Count)
system.cpu0.exec_context.thread_0.statExecutedInstType::SimdShaSigma3            0      0.00%     78.17% # Class of executed instruction. (Count)
system.cpu0.exec_context.thread_0.statExecutedInstType::SimdPredAlu            0      0.00%     78.17% # Class of executed instruction. (Count)
system.cpu0.exec_context.thread_0.statExecutedInstType::MemRead    116320734     13.50%     91.67% # Class of executed instruction. (Count)
system.cpu0.exec_context.thread_0.statExecutedInstType::MemWrite     62648431      7.27%     98.94% # Class of executed instruction. (Count)
system.cpu0.exec_context.thread_0.statExecutedInstType::FloatMemRead      3686094      0.43%     99.37% # Class of executed instruction. (Count)
system.cpu0.exec_context.thread_0.statExecutedInstType::FloatMemWrite      5424837      0.63%    100.00% # Class of executed instruction. (Count)
system.cpu0.exec_context.thread_0.statExecutedInstType::IprAccess            0      0.00%    100.00% # Class of executed instruction. (Count)
system.cpu0.exec_context.thread_0.statExecutedInstType::InstPrefetch            0      0.00%    100.00% # Class of executed instruction. (Count)
system.cpu0.exec_context.thread_0.statExecutedInstType::total    861378539                       # Class of executed instruction. (Count)
system.cpu0.interrupts.clk_domain.clock          8000                       # Clock period in ticks (Tick)
system.cpu0.mmu.dtb.rdAccesses              120905204                       # TLB accesses on read requests (Count)
system.cpu0.mmu.dtb.wrAccesses               68367596                       # TLB accesses on write requests (Count)
system.cpu0.mmu.dtb.rdMisses                    28811                       # TLB misses on read requests (Count)
system.cpu0.mmu.dtb.wrMisses                    19506                       # TLB misses on write requests (Count)
system.cpu0.mmu.dtb.walker.power_state.pwrStateResidencyTicks::UNDEFINED 1144004978000                       # Cumulative time (in ticks) in various power states (Tick)
system.cpu0.mmu.itb.rdAccesses                      0                       # TLB accesses on read requests (Count)
system.cpu0.mmu.itb.wrAccesses              620366515                       # TLB accesses on write requests (Count)
system.cpu0.mmu.itb.rdMisses                        0                       # TLB misses on read requests (Count)
system.cpu0.mmu.itb.wrMisses                     4704                       # TLB misses on write requests (Count)
system.cpu0.mmu.itb.walker.power_state.pwrStateResidencyTicks::UNDEFINED 1144004978000                       # Cumulative time (in ticks) in various power states (Tick)
system.cpu0.power_state.numTransitions              6                       # Number of power state transitions (Count)
system.cpu0.power_state.ticksClkGated::samples            3                       # Distribution of time spent in the clock gated state (Tick)
system.cpu0.power_state.ticksClkGated::mean 1395473666.666667                       # Distribution of time spent in the clock gated state (Tick)
system.cpu0.power_state.ticksClkGated::stdev 2320214662.122900                       # Distribution of time spent in the clock gated state (Tick)
system.cpu0.power_state.ticksClkGated::1000-5e+10            3    100.00%    100.00% # Distribution of time spent in the clock gated state (Tick)
system.cpu0.power_state.ticksClkGated::min_value     36633500                       # Distribution of time spent in the clock gated state (Tick)
system.cpu0.power_state.ticksClkGated::max_value   4074534000                       # Distribution of time spent in the clock gated state (Tick)
system.cpu0.power_state.ticksClkGated::total            3                       # Distribution of time spent in the clock gated state (Tick)
system.cpu0.power_state.pwrStateResidencyTicks::ON 1139818557000                       # Cumulative time (in ticks) in various power states (Tick)
system.cpu0.power_state.pwrStateResidencyTicks::CLK_GATED   4186421000                       # Cumulative time (in ticks) in various power states (Tick)
system.cpu0.thread_0.numInsts                       0                       # Number of Instructions committed (Count)
system.cpu0.thread_0.numOps                         0                       # Number of Ops committed (Count)
system.cpu0.thread_0.numMemRefs                     0                       # Number of Memory References (Count)
system.cpu0.workload.numSyscalls              3845518                       # Number of system calls (Count)
system.cpu0.workload.drivers0.device.dispatcher.numKernelLaunched          307                       # number of kernel launched (Unspecified)
system.cpu0.workload.drivers0.device.dispatcher.cyclesWaitingForDispatch          921                       # number of cycles with outstanding wavefronts that are waiting to be dispatched (Unspecified)
system.cpu0.workload.drivers0.device.hsapp.power_state.pwrStateResidencyTicks::UNDEFINED 1144004978000                       # Cumulative time (in ticks) in various power states (Tick)
system.cpu0.workload.drivers0.device.hsapp.walker.power_state.pwrStateResidencyTicks::UNDEFINED 1144004978000                       # Cumulative time (in ticks) in various power states (Tick)
system.cpu0.workload.drivers0.device.power_state.pwrStateResidencyTicks::UNDEFINED 1144004978000                       # Cumulative time (in ticks) in various power states (Tick)
system.cpu0.workload.drivers0.device.walker.power_state.pwrStateResidencyTicks::UNDEFINED 1144004978000                       # Cumulative time (in ticks) in various power states (Tick)
system.cpu1.numCycles                      2090936538                       # Number of cpu cycles simulated (Cycle)
system.cpu1.numWorkItemsStarted                     0                       # Number of work items this cpu started (Count)
system.cpu1.numWorkItemsCompleted                   0                       # Number of work items this cpu completed (Count)
system.cpu1.clk_domain.clock                      500                       # Clock period in ticks (Tick)
system.cpu1.clk_domain.voltage_domain.voltage            1                       # Voltage in Volts (Volt)
system.cpu1.exec_context.thread_0.numInsts       345162                       # Number of instructions committed (Count)
system.cpu1.exec_context.thread_0.numOps       642823                       # Number of ops (including micro ops) committed (Count)
system.cpu1.exec_context.thread_0.numIntAluAccesses       619445                       # Number of integer alu accesses (Count)
system.cpu1.exec_context.thread_0.numFpAluAccesses        20232                       # Number of float alu accesses (Count)
system.cpu1.exec_context.thread_0.numVecAluAccesses            0                       # Number of vector alu accesses (Count)
system.cpu1.exec_context.thread_0.numCallsReturns        18094                       # Number of times a function call or return occured (Count)
system.cpu1.exec_context.thread_0.numCondCtrlInsts        89267                       # Number of instructions that are conditional controls (Count)
system.cpu1.exec_context.thread_0.numIntInsts       619445                       # Number of integer instructions (Count)
system.cpu1.exec_context.thread_0.numFpInsts        20232                       # Number of float instructions (Count)
system.cpu1.exec_context.thread_0.numVecInsts            0                       # Number of vector instructions (Count)
system.cpu1.exec_context.thread_0.numIntRegReads       674855                       # Number of times the integer registers were read (Count)
system.cpu1.exec_context.thread_0.numIntRegWrites       402727                       # Number of times the integer registers were written (Count)
system.cpu1.exec_context.thread_0.numFpRegReads        24349                       # Number of times the floating registers were read (Count)
system.cpu1.exec_context.thread_0.numFpRegWrites        16980                       # Number of times the floating registers were written (Count)
system.cpu1.exec_context.thread_0.numVecRegReads            0                       # Number of times the vector registers were read (Count)
system.cpu1.exec_context.thread_0.numVecRegWrites            0                       # Number of times the vector registers were written (Count)
system.cpu1.exec_context.thread_0.numVecPredRegReads            0                       # Number of times the predicate registers were read (Count)
system.cpu1.exec_context.thread_0.numVecPredRegWrites            0                       # Number of times the predicate registers were written (Count)
system.cpu1.exec_context.thread_0.numCCRegReads       545684                       # Number of times the CC registers were read (Count)
system.cpu1.exec_context.thread_0.numCCRegWrites       187062                       # Number of times the CC registers were written (Count)
system.cpu1.exec_context.thread_0.numMiscRegReads       373624                       # Number of times the Misc registers were read (Count)
system.cpu1.exec_context.thread_0.numMiscRegWrites           27                       # Number of times the Misc registers were written (Count)
system.cpu1.exec_context.thread_0.numMemRefs       158485                       # Number of memory refs (Count)
system.cpu1.exec_context.thread_0.numLoadInsts       143759                       # Number of load instructions (Count)
system.cpu1.exec_context.thread_0.numStoreInsts        14726                       # Number of store instructions (Count)
system.cpu1.exec_context.thread_0.numIdleCycles 2089716882.112726                       # Number of idle cycles (Cycle)
system.cpu1.exec_context.thread_0.numBusyCycles 1219655.887274                       # Number of busy cycles (Cycle)
system.cpu1.exec_context.thread_0.notIdleFraction     0.000583                       # Percentage of non-idle cycles (Ratio)
system.cpu1.exec_context.thread_0.idleFraction     0.999417                       # Percentage of idle cycles (Ratio)
system.cpu1.exec_context.thread_0.numBranches       110041                       # Number of branches fetched (Count)
system.cpu1.exec_context.thread_0.statExecutedInstType::No_OpClass        10519      1.64%      1.64% # Class of executed instruction. (Count)
system.cpu1.exec_context.thread_0.statExecutedInstType::IntAlu       459716     71.51%     73.15% # Class of executed instruction. (Count)
system.cpu1.exec_context.thread_0.statExecutedInstType::IntMult            3      0.00%     73.15% # Class of executed instruction. (Count)
system.cpu1.exec_context.thread_0.statExecutedInstType::IntDiv           75      0.01%     73.16% # Class of executed instruction. (Count)
system.cpu1.exec_context.thread_0.statExecutedInstType::FloatAdd         2862      0.45%     73.61% # Class of executed instruction. (Count)
system.cpu1.exec_context.thread_0.statExecutedInstType::FloatCmp            0      0.00%     73.61% # Class of executed instruction. (Count)
system.cpu1.exec_context.thread_0.statExecutedInstType::FloatCvt           48      0.01%     73.62% # Class of executed instruction. (Count)
system.cpu1.exec_context.thread_0.statExecutedInstType::FloatMult            0      0.00%     73.62% # Class of executed instruction. (Count)
system.cpu1.exec_context.thread_0.statExecutedInstType::FloatMultAcc            0      0.00%     73.62% # Class of executed instruction. (Count)
system.cpu1.exec_context.thread_0.statExecutedInstType::FloatDiv            0      0.00%     73.62% # Class of executed instruction. (Count)
system.cpu1.exec_context.thread_0.statExecutedInstType::FloatMisc            0      0.00%     73.62% # Class of executed instruction. (Count)
system.cpu1.exec_context.thread_0.statExecutedInstType::FloatSqrt            0      0.00%     73.62% # Class of executed instruction. (Count)
system.cpu1.exec_context.thread_0.statExecutedInstType::SimdAdd           20      0.00%     73.62% # Class of executed instruction. (Count)
system.cpu1.exec_context.thread_0.statExecutedInstType::SimdAddAcc            0      0.00%     73.62% # Class of executed instruction. (Count)
system.cpu1.exec_context.thread_0.statExecutedInstType::SimdAlu         2754      0.43%     74.05% # Class of executed instruction. (Count)
system.cpu1.exec_context.thread_0.statExecutedInstType::SimdCmp            0      0.00%     74.05% # Class of executed instruction. (Count)
system.cpu1.exec_context.thread_0.statExecutedInstType::SimdCvt           40      0.01%     74.05% # Class of executed instruction. (Count)
system.cpu1.exec_context.thread_0.statExecutedInstType::SimdMisc         1542      0.24%     74.29% # Class of executed instruction. (Count)
system.cpu1.exec_context.thread_0.statExecutedInstType::SimdMult            0      0.00%     74.29% # Class of executed instruction. (Count)
system.cpu1.exec_context.thread_0.statExecutedInstType::SimdMultAcc            0      0.00%     74.29% # Class of executed instruction. (Count)
system.cpu1.exec_context.thread_0.statExecutedInstType::SimdShift           21      0.00%     74.30% # Class of executed instruction. (Count)
system.cpu1.exec_context.thread_0.statExecutedInstType::SimdShiftAcc            0      0.00%     74.30% # Class of executed instruction. (Count)
system.cpu1.exec_context.thread_0.statExecutedInstType::SimdDiv            0      0.00%     74.30% # Class of executed instruction. (Count)
system.cpu1.exec_context.thread_0.statExecutedInstType::SimdSqrt            0      0.00%     74.30% # Class of executed instruction. (Count)
system.cpu1.exec_context.thread_0.statExecutedInstType::SimdFloatAdd         1349      0.21%     74.51% # Class of executed instruction. (Count)
system.cpu1.exec_context.thread_0.statExecutedInstType::SimdFloatAlu            0      0.00%     74.51% # Class of executed instruction. (Count)
system.cpu1.exec_context.thread_0.statExecutedInstType::SimdFloatCmp            0      0.00%     74.51% # Class of executed instruction. (Count)
system.cpu1.exec_context.thread_0.statExecutedInstType::SimdFloatCvt         4041      0.63%     75.13% # Class of executed instruction. (Count)
system.cpu1.exec_context.thread_0.statExecutedInstType::SimdFloatDiv            7      0.00%     75.14% # Class of executed instruction. (Count)
system.cpu1.exec_context.thread_0.statExecutedInstType::SimdFloatMisc            0      0.00%     75.14% # Class of executed instruction. (Count)
system.cpu1.exec_context.thread_0.statExecutedInstType::SimdFloatMult         1350      0.21%     75.35% # Class of executed instruction. (Count)
system.cpu1.exec_context.thread_0.statExecutedInstType::SimdFloatMultAcc            0      0.00%     75.35% # Class of executed instruction. (Count)
system.cpu1.exec_context.thread_0.statExecutedInstType::SimdFloatSqrt            0      0.00%     75.35% # Class of executed instruction. (Count)
system.cpu1.exec_context.thread_0.statExecutedInstType::SimdReduceAdd            0      0.00%     75.35% # Class of executed instruction. (Count)
system.cpu1.exec_context.thread_0.statExecutedInstType::SimdReduceAlu            0      0.00%     75.35% # Class of executed instruction. (Count)
system.cpu1.exec_context.thread_0.statExecutedInstType::SimdReduceCmp            0      0.00%     75.35% # Class of executed instruction. (Count)
system.cpu1.exec_context.thread_0.statExecutedInstType::SimdFloatReduceAdd            0      0.00%     75.35% # Class of executed instruction. (Count)
system.cpu1.exec_context.thread_0.statExecutedInstType::SimdFloatReduceCmp            0      0.00%     75.35% # Class of executed instruction. (Count)
system.cpu1.exec_context.thread_0.statExecutedInstType::SimdAes            0      0.00%     75.35% # Class of executed instruction. (Count)
system.cpu1.exec_context.thread_0.statExecutedInstType::SimdAesMix            0      0.00%     75.35% # Class of executed instruction. (Count)
system.cpu1.exec_context.thread_0.statExecutedInstType::SimdSha1Hash            0      0.00%     75.35% # Class of executed instruction. (Count)
system.cpu1.exec_context.thread_0.statExecutedInstType::SimdSha1Hash2            0      0.00%     75.35% # Class of executed instruction. (Count)
system.cpu1.exec_context.thread_0.statExecutedInstType::SimdSha256Hash            0      0.00%     75.35% # Class of executed instruction. (Count)
system.cpu1.exec_context.thread_0.statExecutedInstType::SimdSha256Hash2            0      0.00%     75.35% # Class of executed instruction. (Count)
system.cpu1.exec_context.thread_0.statExecutedInstType::SimdShaSigma2            0      0.00%     75.35% # Class of executed instruction. (Count)
system.cpu1.exec_context.thread_0.statExecutedInstType::SimdShaSigma3            0      0.00%     75.35% # Class of executed instruction. (Count)
system.cpu1.exec_context.thread_0.statExecutedInstType::SimdPredAlu            0      0.00%     75.35% # Class of executed instruction. (Count)
system.cpu1.exec_context.thread_0.statExecutedInstType::MemRead       138212     21.50%     96.85% # Class of executed instruction. (Count)
system.cpu1.exec_context.thread_0.statExecutedInstType::MemWrite        14229      2.21%     99.06% # Class of executed instruction. (Count)
system.cpu1.exec_context.thread_0.statExecutedInstType::FloatMemRead         5547      0.86%     99.92% # Class of executed instruction. (Count)
system.cpu1.exec_context.thread_0.statExecutedInstType::FloatMemWrite          497      0.08%    100.00% # Class of executed instruction. (Count)
system.cpu1.exec_context.thread_0.statExecutedInstType::IprAccess            0      0.00%    100.00% # Class of executed instruction. (Count)
system.cpu1.exec_context.thread_0.statExecutedInstType::InstPrefetch            0      0.00%    100.00% # Class of executed instruction. (Count)
system.cpu1.exec_context.thread_0.statExecutedInstType::total       642832                       # Class of executed instruction. (Count)
system.cpu1.interrupts.clk_domain.clock          8000                       # Clock period in ticks (Tick)
system.cpu1.mmu.dtb.rdAccesses                 143759                       # TLB accesses on read requests (Count)
system.cpu1.mmu.dtb.wrAccesses                  14726                       # TLB accesses on write requests (Count)
system.cpu1.mmu.dtb.rdMisses                      156                       # TLB misses on read requests (Count)
system.cpu1.mmu.dtb.wrMisses                        4                       # TLB misses on write requests (Count)
system.cpu1.mmu.dtb.walker.power_state.pwrStateResidencyTicks::UNDEFINED 1144004978000                       # Cumulative time (in ticks) in various power states (Tick)
system.cpu1.mmu.itb.rdAccesses                      0                       # TLB accesses on read requests (Count)
system.cpu1.mmu.itb.wrAccesses                 455947                       # TLB accesses on write requests (Count)
system.cpu1.mmu.itb.rdMisses                        0                       # TLB misses on read requests (Count)
system.cpu1.mmu.itb.wrMisses                      128                       # TLB misses on write requests (Count)
system.cpu1.mmu.itb.walker.power_state.pwrStateResidencyTicks::UNDEFINED 1144004978000                       # Cumulative time (in ticks) in various power states (Tick)
system.cpu1.power_state.numTransitions              3                       # Number of power state transitions (Count)
system.cpu1.power_state.ticksClkGated::samples            2                       # Distribution of time spent in the clock gated state (Tick)
system.cpu1.power_state.ticksClkGated::mean  50288124500                       # Distribution of time spent in the clock gated state (Tick)
system.cpu1.power_state.ticksClkGated::stdev 68233802565.204292                       # Distribution of time spent in the clock gated state (Tick)
system.cpu1.power_state.ticksClkGated::1000-5e+10            1     50.00%     50.00% # Distribution of time spent in the clock gated state (Tick)
system.cpu1.power_state.ticksClkGated::5e+10-1e+11            1     50.00%    100.00% # Distribution of time spent in the clock gated state (Tick)
system.cpu1.power_state.ticksClkGated::min_value   2039540000                       # Distribution of time spent in the clock gated state (Tick)
system.cpu1.power_state.ticksClkGated::max_value  98536709000                       # Distribution of time spent in the clock gated state (Tick)
system.cpu1.power_state.ticksClkGated::total            2                       # Distribution of time spent in the clock gated state (Tick)
system.cpu1.power_state.pwrStateResidencyTicks::ON 1043428729000                       # Cumulative time (in ticks) in various power states (Tick)
system.cpu1.power_state.pwrStateResidencyTicks::CLK_GATED 100576249000                       # Cumulative time (in ticks) in various power states (Tick)
system.cpu1.thread_0.numInsts                       0                       # Number of Instructions committed (Count)
system.cpu1.thread_0.numOps                         0                       # Number of Ops committed (Count)
system.cpu1.thread_0.numMemRefs                     0                       # Number of Memory References (Count)
system.cpu2.numCycles                      2274543550                       # Number of cpu cycles simulated (Cycle)
system.cpu2.numWorkItemsStarted                     0                       # Number of work items this cpu started (Count)
system.cpu2.numWorkItemsCompleted                   0                       # Number of work items this cpu completed (Count)
system.cpu2.clk_domain.clock                      500                       # Clock period in ticks (Tick)
system.cpu2.clk_domain.voltage_domain.voltage            1                       # Voltage in Volts (Volt)
system.cpu2.exec_context.thread_0.numInsts     23389745                       # Number of instructions committed (Count)
system.cpu2.exec_context.thread_0.numOps     45641636                       # Number of ops (including micro ops) committed (Count)
system.cpu2.exec_context.thread_0.numIntAluAccesses     38859866                       # Number of integer alu accesses (Count)
system.cpu2.exec_context.thread_0.numFpAluAccesses     10429355                       # Number of float alu accesses (Count)
system.cpu2.exec_context.thread_0.numVecAluAccesses            0                       # Number of vector alu accesses (Count)
system.cpu2.exec_context.thread_0.numCallsReturns       173288                       # Number of times a function call or return occured (Count)
system.cpu2.exec_context.thread_0.numCondCtrlInsts      4886034                       # Number of instructions that are conditional controls (Count)
system.cpu2.exec_context.thread_0.numIntInsts     38859866                       # Number of integer instructions (Count)
system.cpu2.exec_context.thread_0.numFpInsts     10429355                       # Number of float instructions (Count)
system.cpu2.exec_context.thread_0.numVecInsts            0                       # Number of vector instructions (Count)
system.cpu2.exec_context.thread_0.numIntRegReads     41478552                       # Number of times the integer registers were read (Count)
system.cpu2.exec_context.thread_0.numIntRegWrites     25013392                       # Number of times the integer registers were written (Count)
system.cpu2.exec_context.thread_0.numFpRegReads     12810210                       # Number of times the floating registers were read (Count)
system.cpu2.exec_context.thread_0.numFpRegWrites      8863511                       # Number of times the floating registers were written (Count)
system.cpu2.exec_context.thread_0.numVecRegReads            0                       # Number of times the vector registers were read (Count)
system.cpu2.exec_context.thread_0.numVecRegWrites            0                       # Number of times the vector registers were written (Count)
system.cpu2.exec_context.thread_0.numVecPredRegReads            0                       # Number of times the predicate registers were read (Count)
system.cpu2.exec_context.thread_0.numVecPredRegWrites            0                       # Number of times the predicate registers were written (Count)
system.cpu2.exec_context.thread_0.numCCRegReads     38581727                       # Number of times the CC registers were read (Count)
system.cpu2.exec_context.thread_0.numCCRegWrites     13687893                       # Number of times the CC registers were written (Count)
system.cpu2.exec_context.thread_0.numMiscRegReads     20664027                       # Number of times the Misc registers were read (Count)
system.cpu2.exec_context.thread_0.numMiscRegWrites          329                       # Number of times the Misc registers were written (Count)
system.cpu2.exec_context.thread_0.numMemRefs      6970652                       # Number of memory refs (Count)
system.cpu2.exec_context.thread_0.numLoadInsts      6214521                       # Number of load instructions (Count)
system.cpu2.exec_context.thread_0.numStoreInsts       756131                       # Number of store instructions (Count)
system.cpu2.exec_context.thread_0.numIdleCycles 2167622375.446686                       # Number of idle cycles (Cycle)
system.cpu2.exec_context.thread_0.numBusyCycles 106921174.553314                       # Number of busy cycles (Cycle)
system.cpu2.exec_context.thread_0.notIdleFraction     0.047008                       # Percentage of non-idle cycles (Ratio)
system.cpu2.exec_context.thread_0.idleFraction     0.952992                       # Percentage of idle cycles (Ratio)
system.cpu2.exec_context.thread_0.numBranches      5785239                       # Number of branches fetched (Count)
system.cpu2.exec_context.thread_0.statExecutedInstType::No_OpClass       303032      0.66%      0.66% # Class of executed instruction. (Count)
system.cpu2.exec_context.thread_0.statExecutedInstType::IntAlu     31228884     68.32%     68.98% # Class of executed instruction. (Count)
system.cpu2.exec_context.thread_0.statExecutedInstType::IntMult         4710      0.01%     68.99% # Class of executed instruction. (Count)
system.cpu2.exec_context.thread_0.statExecutedInstType::IntDiv         7693      0.02%     69.01% # Class of executed instruction. (Count)
system.cpu2.exec_context.thread_0.statExecutedInstType::FloatAdd      1260186      2.76%     71.76% # Class of executed instruction. (Count)
system.cpu2.exec_context.thread_0.statExecutedInstType::FloatCmp            3      0.00%     71.76% # Class of executed instruction. (Count)
system.cpu2.exec_context.thread_0.statExecutedInstType::FloatCvt          530      0.00%     71.77% # Class of executed instruction. (Count)
system.cpu2.exec_context.thread_0.statExecutedInstType::FloatMult            1      0.00%     71.77% # Class of executed instruction. (Count)
system.cpu2.exec_context.thread_0.statExecutedInstType::FloatMultAcc            0      0.00%     71.77% # Class of executed instruction. (Count)
system.cpu2.exec_context.thread_0.statExecutedInstType::FloatDiv            1      0.00%     71.77% # Class of executed instruction. (Count)
system.cpu2.exec_context.thread_0.statExecutedInstType::FloatMisc            0      0.00%     71.77% # Class of executed instruction. (Count)
system.cpu2.exec_context.thread_0.statExecutedInstType::FloatSqrt            0      0.00%     71.77% # Class of executed instruction. (Count)
system.cpu2.exec_context.thread_0.statExecutedInstType::SimdAdd          410      0.00%     71.77% # Class of executed instruction. (Count)
system.cpu2.exec_context.thread_0.statExecutedInstType::SimdAddAcc            0      0.00%     71.77% # Class of executed instruction. (Count)
system.cpu2.exec_context.thread_0.statExecutedInstType::SimdAlu      1521812      3.33%     75.10% # Class of executed instruction. (Count)
system.cpu2.exec_context.thread_0.statExecutedInstType::SimdCmp           12      0.00%     75.10% # Class of executed instruction. (Count)
system.cpu2.exec_context.thread_0.statExecutedInstType::SimdCvt          558      0.00%     75.10% # Class of executed instruction. (Count)
system.cpu2.exec_context.thread_0.statExecutedInstType::SimdMisc       759881      1.66%     76.76% # Class of executed instruction. (Count)
system.cpu2.exec_context.thread_0.statExecutedInstType::SimdMult            0      0.00%     76.76% # Class of executed instruction. (Count)
system.cpu2.exec_context.thread_0.statExecutedInstType::SimdMultAcc            0      0.00%     76.76% # Class of executed instruction. (Count)
system.cpu2.exec_context.thread_0.statExecutedInstType::SimdShift          283      0.00%     76.76% # Class of executed instruction. (Count)
system.cpu2.exec_context.thread_0.statExecutedInstType::SimdShiftAcc            0      0.00%     76.76% # Class of executed instruction. (Count)
system.cpu2.exec_context.thread_0.statExecutedInstType::SimdDiv            0      0.00%     76.76% # Class of executed instruction. (Count)
system.cpu2.exec_context.thread_0.statExecutedInstType::SimdSqrt            0      0.00%     76.76% # Class of executed instruction. (Count)
system.cpu2.exec_context.thread_0.statExecutedInstType::SimdFloatAdd       755720      1.65%     78.41% # Class of executed instruction. (Count)
system.cpu2.exec_context.thread_0.statExecutedInstType::SimdFloatAlu            0      0.00%     78.41% # Class of executed instruction. (Count)
system.cpu2.exec_context.thread_0.statExecutedInstType::SimdFloatCmp            0      0.00%     78.41% # Class of executed instruction. (Count)
system.cpu2.exec_context.thread_0.statExecutedInstType::SimdFloatCvt      2140362      4.68%     83.10% # Class of executed instruction. (Count)
system.cpu2.exec_context.thread_0.statExecutedInstType::SimdFloatDiv          444      0.00%     83.10% # Class of executed instruction. (Count)
system.cpu2.exec_context.thread_0.statExecutedInstType::SimdFloatMisc            0      0.00%     83.10% # Class of executed instruction. (Count)
system.cpu2.exec_context.thread_0.statExecutedInstType::SimdFloatMult       756045      1.65%     84.75% # Class of executed instruction. (Count)
system.cpu2.exec_context.thread_0.statExecutedInstType::SimdFloatMultAcc            0      0.00%     84.75% # Class of executed instruction. (Count)
system.cpu2.exec_context.thread_0.statExecutedInstType::SimdFloatSqrt            0      0.00%     84.75% # Class of executed instruction. (Count)
system.cpu2.exec_context.thread_0.statExecutedInstType::SimdReduceAdd            0      0.00%     84.75% # Class of executed instruction. (Count)
system.cpu2.exec_context.thread_0.statExecutedInstType::SimdReduceAlu            0      0.00%     84.75% # Class of executed instruction. (Count)
system.cpu2.exec_context.thread_0.statExecutedInstType::SimdReduceCmp            0      0.00%     84.75% # Class of executed instruction. (Count)
system.cpu2.exec_context.thread_0.statExecutedInstType::SimdFloatReduceAdd            0      0.00%     84.75% # Class of executed instruction. (Count)
system.cpu2.exec_context.thread_0.statExecutedInstType::SimdFloatReduceCmp            0      0.00%     84.75% # Class of executed instruction. (Count)
system.cpu2.exec_context.thread_0.statExecutedInstType::SimdAes            0      0.00%     84.75% # Class of executed instruction. (Count)
system.cpu2.exec_context.thread_0.statExecutedInstType::SimdAesMix            0      0.00%     84.75% # Class of executed instruction. (Count)
system.cpu2.exec_context.thread_0.statExecutedInstType::SimdSha1Hash            0      0.00%     84.75% # Class of executed instruction. (Count)
system.cpu2.exec_context.thread_0.statExecutedInstType::SimdSha1Hash2            0      0.00%     84.75% # Class of executed instruction. (Count)
system.cpu2.exec_context.thread_0.statExecutedInstType::SimdSha256Hash            0      0.00%     84.75% # Class of executed instruction. (Count)
system.cpu2.exec_context.thread_0.statExecutedInstType::SimdSha256Hash2            0      0.00%     84.75% # Class of executed instruction. (Count)
system.cpu2.exec_context.thread_0.statExecutedInstType::SimdShaSigma2            0      0.00%     84.75% # Class of executed instruction. (Count)
system.cpu2.exec_context.thread_0.statExecutedInstType::SimdShaSigma3            0      0.00%     84.75% # Class of executed instruction. (Count)
system.cpu2.exec_context.thread_0.statExecutedInstType::SimdPredAlu            0      0.00%     84.75% # Class of executed instruction. (Count)
system.cpu2.exec_context.thread_0.statExecutedInstType::MemRead      3164501      6.92%     91.67% # Class of executed instruction. (Count)
system.cpu2.exec_context.thread_0.statExecutedInstType::MemWrite       575135      1.26%     92.93% # Class of executed instruction. (Count)
system.cpu2.exec_context.thread_0.statExecutedInstType::FloatMemRead      3050020      6.67%     99.60% # Class of executed instruction. (Count)
system.cpu2.exec_context.thread_0.statExecutedInstType::FloatMemWrite       180996      0.40%    100.00% # Class of executed instruction. (Count)
system.cpu2.exec_context.thread_0.statExecutedInstType::IprAccess            0      0.00%    100.00% # Class of executed instruction. (Count)
system.cpu2.exec_context.thread_0.statExecutedInstType::InstPrefetch            0      0.00%    100.00% # Class of executed instruction. (Count)
system.cpu2.exec_context.thread_0.statExecutedInstType::total     45711219                       # Class of executed instruction. (Count)
system.cpu2.interrupts.clk_domain.clock          8000                       # Clock period in ticks (Tick)
system.cpu2.mmu.dtb.rdAccesses                6214547                       # TLB accesses on read requests (Count)
system.cpu2.mmu.dtb.wrAccesses                 756394                       # TLB accesses on write requests (Count)
system.cpu2.mmu.dtb.rdMisses                     1394                       # TLB misses on read requests (Count)
system.cpu2.mmu.dtb.wrMisses                      565                       # TLB misses on write requests (Count)
system.cpu2.mmu.dtb.walker.power_state.pwrStateResidencyTicks::UNDEFINED 1144004978000                       # Cumulative time (in ticks) in various power states (Tick)
system.cpu2.mmu.itb.rdAccesses                      0                       # TLB accesses on read requests (Count)
system.cpu2.mmu.itb.wrAccesses               33106225                       # TLB accesses on write requests (Count)
system.cpu2.mmu.itb.rdMisses                        0                       # TLB misses on read requests (Count)
system.cpu2.mmu.itb.wrMisses                     5178                       # TLB misses on write requests (Count)
system.cpu2.mmu.itb.walker.power_state.pwrStateResidencyTicks::UNDEFINED 1144004978000                       # Cumulative time (in ticks) in various power states (Tick)
system.cpu2.power_state.numTransitions            979                       # Number of power state transitions (Count)
system.cpu2.power_state.ticksClkGated::samples          490                       # Distribution of time spent in the clock gated state (Tick)
system.cpu2.power_state.ticksClkGated::mean 94353225.510204                       # Distribution of time spent in the clock gated state (Tick)
system.cpu2.power_state.ticksClkGated::stdev 353919077.421319                       # Distribution of time spent in the clock gated state (Tick)
system.cpu2.power_state.ticksClkGated::1000-5e+10          490    100.00%    100.00% # Distribution of time spent in the clock gated state (Tick)
system.cpu2.power_state.ticksClkGated::min_value       739500                       # Distribution of time spent in the clock gated state (Tick)
system.cpu2.power_state.ticksClkGated::max_value   6733203000                       # Distribution of time spent in the clock gated state (Tick)
system.cpu2.power_state.ticksClkGated::total          490                       # Distribution of time spent in the clock gated state (Tick)
system.cpu2.power_state.pwrStateResidencyTicks::ON 1097771897500                       # Cumulative time (in ticks) in various power states (Tick)
system.cpu2.power_state.pwrStateResidencyTicks::CLK_GATED  46233080500                       # Cumulative time (in ticks) in various power states (Tick)
system.cpu2.thread_0.numInsts                       0                       # Number of Instructions committed (Count)
system.cpu2.thread_0.numOps                         0                       # Number of Ops committed (Count)
system.cpu2.thread_0.numMemRefs                     0                       # Number of Memory References (Count)
system.cpu3.allLatencyDist::bucket_size         10000                       # delay distribution for all (Unspecified)
system.cpu3.allLatencyDist::min_bucket              0                       # delay distribution for all (Unspecified)
system.cpu3.allLatencyDist::max_bucket        1600000                       # delay distribution for all (Unspecified)
system.cpu3.allLatencyDist::samples           3251276                       # delay distribution for all (Unspecified)
system.cpu3.allLatencyDist::mean         377082.098536                       # delay distribution for all (Unspecified)
system.cpu3.allLatencyDist::stdev        222932.225737                       # delay distribution for all (Unspecified)
system.cpu3.allLatencyDist::underflows              0      0.00%      0.00% # delay distribution for all (Unspecified)
system.cpu3.allLatencyDist               |           0      0.00%      0.00% |           0      0.00%      0.00% |           0      0.00%      0.00% |           0      0.00%      0.00% |           0      0.00%      0.00% |           0      0.00%      0.00% |           0      0.00%      0.00% |           0      0.00%      0.00% |           0      0.00%      0.00% |           0      0.00%      0.00% |      397677     12.23%     12.23% |       37842      1.16%     13.40% |      120571      3.71%     17.10% |      106183      3.27%     20.37% |       63842      1.96%     22.33% |       44579      1.37%     23.70% |       38889      1.20%     24.90% |       59912      1.84%     26.74% |       43715      1.34%     28.09% |       48612      1.50%     29.58% |       65212      2.01%     31.59% |       47009      1.45%     33.03% |       38967      1.20%     34.23% |       31540      0.97%     35.20% |       62760      1.93%     37.13% |       36013      1.11%     38.24% |       28728      0.88%     39.12% |       33203      1.02%     40.15% |       31629      0.97%     41.12% |       28676      0.88%     42.00% |       28904      0.89%     42.89% |       36747      1.13%     44.02% |       52841      1.63%     45.65% |       37626      1.16%     46.80% |       42089      1.29%     48.10% |       46965      1.44%     49.54% |       45706      1.41%     50.95% |       43563      1.34%     52.29% |       45231      1.39%     53.68% |       50154      1.54%     55.22% |       49018      1.51%     56.73% |       49076      1.51%     58.24% |       55072      1.69%     59.93% |       51914      1.60%     61.53% |       49202      1.51%     63.04% |       47343      1.46%     64.50% |       46952      1.44%     65.94% |       52766      1.62%     67.57% |       48762      1.50%     69.06% |       53168      1.64%     70.70% |       46979      1.44%     72.15% |       44484      1.37%     73.51% |       44014      1.35%     74.87% |       41688      1.28%     76.15% |       43064      1.32%     77.47% |       41356      1.27%     78.75% |       43946      1.35%     80.10% |       38432      1.18%     81.28% |       35349      1.09%     82.37% |       33574      1.03%     83.40% |       30847      0.95%     84.35% |       31377      0.97%     85.31% |       29638      0.91%     86.22% |       29860      0.92%     87.14% |       29345      0.90%     88.05% |       25944      0.80%     88.84% |       23416      0.72%     89.56% |       21943      0.67%     90.24% |       20425      0.63%     90.87% |       19296      0.59%     91.46% |       18232      0.56%     92.02% |       17850      0.55%     92.57% |       16432      0.51%     93.08% |       15296      0.47%     93.55% |       14408      0.44%     93.99% |       13572      0.42%     94.41% |       12708      0.39%     94.80% |       12267      0.38%     95.17% |       11583      0.36%     95.53% |       10550      0.32%     95.86% |        9759      0.30%     96.16% |        9196      0.28%     96.44% |        8625      0.27%     96.70% |        8018      0.25%     96.95% |        7543      0.23%     97.18% |        7251      0.22%     97.41% |        6880      0.21%     97.62% |        6657      0.20%     97.82% |        6273      0.19%     98.01% |        5668      0.17%     98.19% |        5378      0.17%     98.35% |        5030      0.15%     98.51% |        4558      0.14%     98.65% |        4361      0.13%     98.78% |        3940      0.12%     98.90% |        3733      0.11%     99.02% |        3442      0.11%     99.13% |        3027      0.09%     99.22% |        2739      0.08%     99.30% |        2528      0.08%     99.38% |        2303      0.07%     99.45% |        2088      0.06%     99.52% |        1864      0.06%     99.57% |        1690      0.05%     99.63% |        1377      0.04%     99.67% |        1315      0.04%     99.71% |        1078      0.03%     99.74% |         965      0.03%     99.77% |         815      0.03%     99.80% |         690      0.02%     99.82% |         622      0.02%     99.84% |         604      0.02%     99.85% |         460      0.01%     99.87% |         424      0.01%     99.88% |         368      0.01%     99.89% |         349      0.01%     99.90% |         296      0.01%     99.91% |         281      0.01%     99.92% |         237      0.01%     99.93% |         201      0.01%     99.94% |         164      0.01%     99.94% |         165      0.01%     99.95% |         122      0.00%     99.95% |         129      0.00%     99.95% |         101      0.00%     99.96% |          95      0.00%     99.96% |          72      0.00%     99.96% |          82      0.00%     99.96% |          72      0.00%     99.97% |          79      0.00%     99.97% |          67      0.00%     99.97% |          57      0.00%     99.97% |          55      0.00%     99.97% |          46      0.00%     99.98% |          38      0.00%     99.98% |          57      0.00%     99.98% |          36      0.00%     99.98% |          37      0.00%     99.98% |          35      0.00%     99.98% |          27      0.00%     99.98% |          32      0.00%     99.98% |          30      0.00%     99.98% |          17      0.00%     99.98% |          19      0.00%     99.99% |          21      0.00%     99.99% |          17      0.00%     99.99% |          19      0.00%     99.99% |          18      0.00%     99.99% |          17      0.00%     99.99% |          17      0.00%     99.99% |          20      0.00%     99.99% |          17      0.00%     99.99% |          21      0.00%     99.99% |          15      0.00%     99.99% |          23      0.00%     99.99% |          16      0.00%     99.99% |          11      0.00%     99.99% |          13      0.00%     99.99% |          17      0.00%     99.99% |          15      0.00%     99.99% |           4      0.00%     99.99% # delay distribution for all (Unspecified)
system.cpu3.allLatencyDist::overflows             195      0.01%    100.00% # delay distribution for all (Unspecified)
system.cpu3.allLatencyDist::min_value          105000                       # delay distribution for all (Unspecified)
system.cpu3.allLatencyDist::max_value        10396000                       # delay distribution for all (Unspecified)
system.cpu3.allLatencyDist::total             3251276                       # delay distribution for all (Unspecified)
system.cpu3.loadLatencyDist::bucket_size        10000                       # delay distribution for loads (Unspecified)
system.cpu3.loadLatencyDist::min_bucket             0                       # delay distribution for loads (Unspecified)
system.cpu3.loadLatencyDist::max_bucket       1600000                       # delay distribution for loads (Unspecified)
system.cpu3.loadLatencyDist::samples          2630306                       # delay distribution for loads (Unspecified)
system.cpu3.loadLatencyDist::mean        349355.075417                       # delay distribution for loads (Unspecified)
system.cpu3.loadLatencyDist::stdev       229672.351116                       # delay distribution for loads (Unspecified)
system.cpu3.loadLatencyDist::underflows             0      0.00%      0.00% # delay distribution for loads (Unspecified)
system.cpu3.loadLatencyDist              |           0      0.00%      0.00% |           0      0.00%      0.00% |           0      0.00%      0.00% |           0      0.00%      0.00% |           0      0.00%      0.00% |           0      0.00%      0.00% |           0      0.00%      0.00% |           0      0.00%      0.00% |           0      0.00%      0.00% |           0      0.00%      0.00% |      397677     15.12%     15.12% |       37842      1.44%     16.56% |      120571      4.58%     21.14% |      106183      4.04%     25.18% |       63842      2.43%     27.61% |       44579      1.69%     29.30% |       38889      1.48%     30.78% |       59912      2.28%     33.06% |       43715      1.66%     34.72% |       48612      1.85%     36.57% |       65212      2.48%     39.05% |       47009      1.79%     40.83% |       38967      1.48%     42.31% |       31540      1.20%     43.51% |       47479      1.81%     45.32% |       32066      1.22%     46.54% |       24934      0.95%     47.49% |       29418      1.12%     48.60% |       28141      1.07%     49.67% |       24900      0.95%     50.62% |       24823      0.94%     51.56% |       31129      1.18%     52.75% |       29704      1.13%     53.88% |       24668      0.94%     54.82% |       30665      1.17%     55.98% |       33453      1.27%     57.25% |       31022      1.18%     58.43% |       30054      1.14%     59.58% |       29425      1.12%     60.69% |       33470      1.27%     61.97% |       30232      1.15%     63.12% |       32110      1.22%     64.34% |       37545      1.43%     65.76% |       34182      1.30%     67.06% |       31283      1.19%     68.25% |       29913      1.14%     69.39% |       29373      1.12%     70.51% |       34327      1.31%     71.81% |       28916      1.10%     72.91% |       36064      1.37%     74.28% |       29467      1.12%     75.40% |       28018      1.07%     76.47% |       27247      1.04%     77.50% |       25556      0.97%     78.48% |       27658      1.05%     79.53% |       26441      1.01%     80.53% |       29116      1.11%     81.64% |       25548      0.97%     82.61% |       23234      0.88%     83.49% |       22207      0.84%     84.34% |       20161      0.77%     85.10% |       21438      0.82%     85.92% |       20294      0.77%     86.69% |       21622      0.82%     87.51% |       21420      0.81%     88.33% |       18845      0.72%     89.04% |       16930      0.64%     89.69% |       16129      0.61%     90.30% |       14891      0.57%     90.87% |       14306      0.54%     91.41% |       13631      0.52%     91.93% |       13694      0.52%     92.45% |       12501      0.48%     92.92% |       11772      0.45%     93.37% |       11131      0.42%     93.80% |       10451      0.40%     94.19% |        9909      0.38%     94.57% |        9682      0.37%     94.94% |        9206      0.35%     95.29% |        8476      0.32%     95.61% |        7798      0.30%     95.91% |        7466      0.28%     96.19% |        6983      0.27%     96.46% |        6495      0.25%     96.70% |        6200      0.24%     96.94% |        5956      0.23%     97.16% |        5745      0.22%     97.38% |        5597      0.21%     97.60% |        5252      0.20%     97.80% |        4830      0.18%     97.98% |        4559      0.17%     98.15% |        4332      0.16%     98.32% |        3908      0.15%     98.47% |        3804      0.14%     98.61% |        3466      0.13%     98.74% |        3305      0.13%     98.87% |        3079      0.12%     98.98% |        2724      0.10%     99.09% |        2520      0.10%     99.18% |        2306      0.09%     99.27% |        2136      0.08%     99.35% |        1957      0.07%     99.43% |        1759      0.07%     99.49% |        1606      0.06%     99.56% |        1299      0.05%     99.60% |        1239      0.05%     99.65% |        1040      0.04%     99.69% |         915      0.03%     99.73% |         780      0.03%     99.76% |         666      0.03%     99.78% |         600      0.02%     99.80% |         578      0.02%     99.83% |         441      0.02%     99.84% |         413      0.02%     99.86% |         346      0.01%     99.87% |         341      0.01%     99.88% |         284      0.01%     99.90% |         276      0.01%     99.91% |         232      0.01%     99.91% |         201      0.01%     99.92% |         162      0.01%     99.93% |         164      0.01%     99.93% |         119      0.00%     99.94% |         123      0.00%     99.94% |          99      0.00%     99.95% |          91      0.00%     99.95% |          72      0.00%     99.95% |          79      0.00%     99.96% |          70      0.00%     99.96% |          77      0.00%     99.96% |          67      0.00%     99.96% |          57      0.00%     99.97% |          54      0.00%     99.97% |          45      0.00%     99.97% |          38      0.00%     99.97% |          56      0.00%     99.97% |          35      0.00%     99.98% |          36      0.00%     99.98% |          35      0.00%     99.98% |          25      0.00%     99.98% |          32      0.00%     99.98% |          29      0.00%     99.98% |          15      0.00%     99.98% |          18      0.00%     99.98% |          21      0.00%     99.98% |          17      0.00%     99.98% |          19      0.00%     99.99% |          17      0.00%     99.99% |          17      0.00%     99.99% |          17      0.00%     99.99% |          20      0.00%     99.99% |          17      0.00%     99.99% |          19      0.00%     99.99% |          15      0.00%     99.99% |          22      0.00%     99.99% |          16      0.00%     99.99% |          10      0.00%     99.99% |          12      0.00%     99.99% |          17      0.00%     99.99% |          14      0.00%     99.99% |           4      0.00%     99.99% # delay distribution for loads (Unspecified)
system.cpu3.loadLatencyDist::overflows            173      0.01%    100.00% # delay distribution for loads (Unspecified)
system.cpu3.loadLatencyDist::min_value         105000                       # delay distribution for loads (Unspecified)
system.cpu3.loadLatencyDist::max_value       10396000                       # delay distribution for loads (Unspecified)
system.cpu3.loadLatencyDist::total            2630306                       # delay distribution for loads (Unspecified)
system.cpu3.storeLatencyDist::bucket_size        10000                       # delay distribution for stores (Unspecified)
system.cpu3.storeLatencyDist::min_bucket            0                       # delay distribution for stores (Unspecified)
system.cpu3.storeLatencyDist::max_bucket      1600000                       # delay distribution for stores (Unspecified)
system.cpu3.storeLatencyDist::samples          620970                       # delay distribution for stores (Unspecified)
system.cpu3.storeLatencyDist::mean       494528.279949                       # delay distribution for stores (Unspecified)
system.cpu3.storeLatencyDist::stdev      140452.798545                       # delay distribution for stores (Unspecified)
system.cpu3.storeLatencyDist::underflows            0      0.00%      0.00% # delay distribution for stores (Unspecified)
system.cpu3.storeLatencyDist             |           0      0.00%      0.00% |           0      0.00%      0.00% |           0      0.00%      0.00% |           0      0.00%      0.00% |           0      0.00%      0.00% |           0      0.00%      0.00% |           0      0.00%      0.00% |           0      0.00%      0.00% |           0      0.00%      0.00% |           0      0.00%      0.00% |           0      0.00%      0.00% |           0      0.00%      0.00% |           0      0.00%      0.00% |           0      0.00%      0.00% |           0      0.00%      0.00% |           0      0.00%      0.00% |           0      0.00%      0.00% |           0      0.00%      0.00% |           0      0.00%      0.00% |           0      0.00%      0.00% |           0      0.00%      0.00% |           0      0.00%      0.00% |           0      0.00%      0.00% |           0      0.00%      0.00% |       15281      2.46%      2.46% |        3947      0.64%      3.10% |        3794      0.61%      3.71% |        3785      0.61%      4.32% |        3488      0.56%      4.88% |        3776      0.61%      5.49% |        4081      0.66%      6.14% |        5618      0.90%      7.05% |       23137      3.73%     10.77% |       12958      2.09%     12.86% |       11424      1.84%     14.70% |       13512      2.18%     16.88% |       14684      2.36%     19.24% |       13509      2.18%     21.42% |       15806      2.55%     23.96% |       16684      2.69%     26.65% |       18786      3.03%     29.67% |       16966      2.73%     32.41% |       17527      2.82%     35.23% |       17732      2.86%     38.08% |       17919      2.89%     40.97% |       17430      2.81%     43.78% |       17579      2.83%     46.61% |       18439      2.97%     49.58% |       19846      3.20%     52.77% |       17104      2.75%     55.53% |       17512      2.82%     58.35% |       16466      2.65%     61.00% |       16767      2.70%     63.70% |       16132      2.60%     66.30% |       15406      2.48%     68.78% |       14915      2.40%     71.18% |       14830      2.39%     73.57% |       12884      2.07%     75.64% |       12115      1.95%     77.59% |       11367      1.83%     79.43% |       10686      1.72%     81.15% |        9939      1.60%     82.75% |        9344      1.50%     84.25% |        8238      1.33%     85.58% |        7925      1.28%     86.85% |        7099      1.14%     88.00% |        6486      1.04%     89.04% |        5814      0.94%     89.98% |        5534      0.89%     90.87% |        4990      0.80%     91.67% |        4601      0.74%     92.41% |        4156      0.67%     93.08% |        3931      0.63%     93.72% |        3524      0.57%     94.28% |        3277      0.53%     94.81% |        3121      0.50%     95.31% |        2799      0.45%     95.76% |        2585      0.42%     96.18% |        2377      0.38%     96.56% |        2074      0.33%     96.90% |        1961      0.32%     97.21% |        1730      0.28%     97.49% |        1642      0.26%     97.76% |        1523      0.25%     98.00% |        1343      0.22%     98.22% |        1295      0.21%     98.43% |        1135      0.18%     98.61% |        1060      0.17%     98.78% |        1021      0.16%     98.94% |         838      0.13%     99.08% |         819      0.13%     99.21% |         698      0.11%     99.32% |         650      0.10%     99.43% |         557      0.09%     99.52% |         474      0.08%     99.59% |         428      0.07%     99.66% |         363      0.06%     99.72% |         303      0.05%     99.77% |         219      0.04%     99.81% |         222      0.04%     99.84% |         167      0.03%     99.87% |         131      0.02%     99.89% |         105      0.02%     99.91% |          84      0.01%     99.92% |          78      0.01%     99.93% |          76      0.01%     99.94% |          38      0.01%     99.95% |          50      0.01%     99.96% |          35      0.01%     99.96% |          24      0.00%     99.97% |          22      0.00%     99.97% |          26      0.00%     99.98% |          19      0.00%     99.98% |          11      0.00%     99.98% |          22      0.00%     99.98% |           8      0.00%     99.99% |          12      0.00%     99.99% |           5      0.00%     99.99% |           5      0.00%     99.99% |           0      0.00%     99.99% |           2      0.00%     99.99% |           1      0.00%     99.99% |           3      0.00%     99.99% |           6      0.00%     99.99% |           2      0.00%     99.99% |           4      0.00%     99.99% |           0      0.00%     99.99% |           3      0.00%     99.99% |           2      0.00%     99.99% |           2      0.00%     99.99% |           0      0.00%     99.99% |           0      0.00%     99.99% |           1      0.00%     99.99% |           1      0.00%     99.99% |           0      0.00%     99.99% |           1      0.00%     99.99% |           1      0.00%     99.99% |           1      0.00%     99.99% |           0      0.00%     99.99% |           2      0.00%     99.99% |           0      0.00%     99.99% |           1      0.00%     99.99% |           2      0.00%    100.00% |           1      0.00%    100.00% |           0      0.00%    100.00% |           0      0.00%    100.00% |           0      0.00%    100.00% |           1      0.00%    100.00% |           0      0.00%    100.00% |           0      0.00%    100.00% |           0      0.00%    100.00% |           0      0.00%    100.00% |           2      0.00%    100.00% |           0      0.00%    100.00% |           1      0.00%    100.00% |           0      0.00%    100.00% |           1      0.00%    100.00% |           1      0.00%    100.00% |           0      0.00%    100.00% |           1      0.00%    100.00% |           0      0.00%    100.00% # delay distribution for stores (Unspecified)
system.cpu3.storeLatencyDist::overflows            22      0.00%    100.00% # delay distribution for stores (Unspecified)
system.cpu3.storeLatencyDist::min_value        249000                       # delay distribution for stores (Unspecified)
system.cpu3.storeLatencyDist::max_value       3012000                       # delay distribution for stores (Unspecified)
system.cpu3.storeLatencyDist::total            620970                       # delay distribution for stores (Unspecified)
system.cpu3.initToCoalesceLatency::bucket_size        10000                       # Ticks from vmem inst initiateAcc to coalescer issue (Unspecified)
system.cpu3.initToCoalesceLatency::min_bucket            0                       # Ticks from vmem inst initiateAcc to coalescer issue (Unspecified)
system.cpu3.initToCoalesceLatency::max_bucket      1600000                       # Ticks from vmem inst initiateAcc to coalescer issue (Unspecified)
system.cpu3.initToCoalesceLatency::samples            0                       # Ticks from vmem inst initiateAcc to coalescer issue (Unspecified)
system.cpu3.initToCoalesceLatency::mean           nan                       # Ticks from vmem inst initiateAcc to coalescer issue (Unspecified)
system.cpu3.initToCoalesceLatency::stdev          nan                       # Ticks from vmem inst initiateAcc to coalescer issue (Unspecified)
system.cpu3.initToCoalesceLatency::underflows            0                       # Ticks from vmem inst initiateAcc to coalescer issue (Unspecified)
[...]
system.cpu3.cacheBlockRoundTrip7::overflows            0                       # Coalsr-to-coalsr time for the Nth cache block in an inst (Unspecified)
system.cpu3.cacheBlockRoundTrip7::min_value            0                       # Coalsr-to-coalsr time for the Nth cache block in an inst (Unspecified)
system.cpu3.cacheBlockRoundTrip7::max_value            0                       # Coalsr-to-coalsr time for the Nth cache block in an inst (Unspecified)
system.cpu3.cacheBlockRoundTrip7::total             0                       # Coalsr-to-coalsr time for the Nth cache block in an inst (Unspecified)
system.cpu3.cacheBlockRoundTrip8::bucket_size        10000                       # Coalsr-to-coalsr time for the Nth cache block in an inst (Unspecified)
system.cpu3.cacheBlockRoundTrip8::min_bucket            0                       # Coalsr-to-coalsr time for the Nth cache block in an inst (Unspecified)
system.cpu3.cacheBlockRoundTrip8::max_bucket      1600000                       # Coalsr-to-coalsr time for the Nth cache block in an inst (Unspecified)
system.cpu3.cacheBlockRoundTrip8::samples            0                       # Coalsr-to-coalsr time for the Nth cache block in an inst (Unspecified)
system.cpu3.cacheBlockRoundTrip8::mean            nan                       # Coalsr-to-coalsr time for the Nth cache block in an inst (Unspecified)
system.cpu3.cacheBlockRoundTrip8::stdev           nan                       # Coalsr-to-coalsr time for the Nth cache block in an inst (Unspecified)
system.cpu3.cacheBlockRoundTrip8::underflows            0                       # Coalsr-to-coalsr time for the Nth cache block in an inst (Unspecified)
system.cpu3.cacheBlockRoundTrip8         |           0                       |           0                       |           0                       |           0                       |           0                       |           0                       |           0                       |           0                       |           0                       |           0                       |           0                       |           0                       |           0                       |           0                       |           0                       |           0                       |           0                       |           0                       |           0                       |           0                       |           0                       |           0                       |           0                       |           0                       |           0                       |           0                       |           0                       |           0                       |           0                       |           0                       |           0                       |           0                       |           0                       |           0                       |           0                       |           0                       |           0                       |           0                       |           0                       |           0                       |           0                       |           0                       |           0                       |           0                       |           0                       |           0                       |           0                       |           0                       |           0                       |           0                       |           0                       |           0                       |           0                       |           0                       |           0                       |           0                       |           0                       |           0                       |           0                       |           0                       |           0                       |           0                       |           0                       |           0                       |           0                       |           0                       |           0                       |           0                       |           0                       |           0                       |           0                       |           0                       |           0                       |           0                       |           0                       |           0                       |           0                       |           0                       |           0                       |           0                       |           0                       |           0                       |           0                       |           0                       |           0                       |           0                       |           0                       |           0                       |           0                       |           0                       |           0                       |           0                       |           0                       |           0                       |           0                       |           0                       |           0                       |           0                       |           0                       |           0                       |           0                       |           0                       |           0                       |           0                       |           0                       |           0                       |           0                       |           0                       |           0                       |           0                       |           0                       |           0                       |           0                       |           0                       |           0                       |           0                       |           0                       |           0                       |           0                       |           0                       |           0                       |           0                       |           0                       |           0                       |           0                       |           0                       |           0                       |           0                       |           0                       |           0                       |           0                       |           0                       |           0                       |           0                       |           0                       |           0                       |           0                       |           0                       |           0                       |           0                       |           0                       |           0                       |           0                       |           0                       |           0                       |           0                       |           0                       |           0                       |           0                       |           0                       |           0                       |           0                       |           0                       |           0                       |           0                       |           0                       |           0                       |           0                       |           0                       |           0                       |           0                       # Coalsr-to-coalsr time for the Nth cache block in an inst (Unspecified)
system.cpu3.cacheBlockRoundTrip8::overflows            0                       # Coalsr-to-coalsr time for the Nth cache block in an inst (Unspecified)
system.cpu3.cacheBlockRoundTrip8::min_value            0                       # Coalsr-to-coalsr time for the Nth cache block in an inst (Unspecified)
system.cpu3.cacheBlockRoundTrip8::max_value            0                       # Coalsr-to-coalsr time for the Nth cache block in an inst (Unspecified)
system.cpu3.cacheBlockRoundTrip8::total             0                       # Coalsr-to-coalsr time for the Nth cache block in an inst (Unspecified)
system.cpu3.cacheBlockRoundTrip9::bucket_size        10000                       # Coalsr-to-coalsr time for the Nth cache block in an inst (Unspecified)
system.cpu3.cacheBlockRoundTrip9::min_bucket            0                       # Coalsr-to-coalsr time for the Nth cache block in an inst (Unspecified)
system.cpu3.cacheBlockRoundTrip9::max_bucket      1600000                       # Coalsr-to-coalsr time for the Nth cache block in an inst (Unspecified)
system.cpu3.cacheBlockRoundTrip9::samples            0                       # Coalsr-to-coalsr time for the Nth cache block in an inst (Unspecified)
system.cpu3.cacheBlockRoundTrip9::mean            nan                       # Coalsr-to-coalsr time for the Nth cache block in an inst (Unspecified)
system.cpu3.cacheBlockRoundTrip9::stdev           nan                       # Coalsr-to-coalsr time for the Nth cache block in an inst (Unspecified)
system.cpu3.cacheBlockRoundTrip9::underflows            0                       # Coalsr-to-coalsr time for the Nth cache block in an inst (Unspecified)
system.cpu3.cacheBlockRoundTrip9         |           0                       |           0                       |           0                       |           0                       |           0                       |           0                       |           0                       |           0                       |           0                       |           0                       |           0                       |           0                       |           0                       |           0                       |           0                       |           0                       |           0                       |           0                       |           0                       |           0                       |           0                       |           0                       |           0                       |           0                       |           0                       |           0                       |           0                       |           0                       |           0                       |           0                       |           0                       |           0                       |           0                       |           0                       |           0                       |           0                       |           0                       |           0                       |           0                       |           0                       |           0                       |           0                       |           0                       |           0                       |           0                       |           0                       |           0                       |           0                       |           0                       |           0                       |           0                       |           0                       |           0                       |           0                       |           0                       |           0                       |           0                       |           0                       |           0                       |           0                       |           0                       |           0                       |           0                       |           0                       |           0                       |           0                       |           0                       |           0                       |           0                       |           0                       |           0                       |           0                       |           0                       |           0                       |           0                       |           0                       |           0                       |           0                       |           0                       |           0                       |           0                       |           0                       |           0                       |           0                       |           0                       |           0                       |           0                       |           0                       |           0                       |           0                       |           0                       |           0                       |           0                       |           0                       |           0                       |           0                       |           0                       |           0                       |           0                       |           0                       |           0                       |           0                       |           0                       |           0                       |           0                       |           0                       |           0                       |           0                       |           0                       |           0                       |           0                       |           0                       |           0                       |           0                       |           0                       |           0                       |           0                       |           0                       |           0                       |           0                       |           0                       |           0                       |           0                       |           0                       |           0                       |           0                       |           0                       |           0                       |           0                       |           0                       |           0                       |           0                       |           0                       |           0                       |           0                       |           0                       |           0                       |           0                       |           0                       |           0                       |           0                       |           0                       |           0                       |           0                       |           0                       |           0                       |           0                       |           0                       |           0                       |           0                       |           0                       |           0                       |           0                       |           0                       |           0                       |           0                       |           0                       |           0                       |           0                       |           0                       |           0                       # Coalsr-to-coalsr time for the Nth cache block in an inst (Unspecified)
system.cpu3.cacheBlockRoundTrip9::overflows            0                       # Coalsr-to-coalsr time for the Nth cache block in an inst (Unspecified)
system.cpu3.cacheBlockRoundTrip9::min_value            0                       # Coalsr-to-coalsr time for the Nth cache block in an inst (Unspecified)
system.cpu3.cacheBlockRoundTrip9::max_value            0                       # Coalsr-to-coalsr time for the Nth cache block in an inst (Unspecified)
system.cpu3.cacheBlockRoundTrip9::total             0                       # Coalsr-to-coalsr time for the Nth cache block in an inst (Unspecified)

---------- End Simulation Statistics   ----------
