
---------- Begin Simulation Statistics ----------
simSeconds                                   1.126980                       # Number of seconds simulated (Second)
simTicks                                 1126979747000                       # Number of ticks simulated (Tick)
finalTick                                1126979747000                       # Number of ticks from beginning of simulation (restored from checkpoints and never reset) (Tick)
simFreq                                  1000000000000                       # The number of ticks per simulated second ((Tick/Second))
hostSeconds                                   3039.92                       # Real time elapsed on the host (Second)
hostTickRate                                370726329                       # The number of ticks simulated per host second (ticks/s) ((Tick/Second))
hostMemory                                   20251904                       # Number of bytes of host memory used (Byte)
simInsts                                    533238755                       # Number of instructions simulated (Count)
simOps                                     1024161178                       # Number of ops (including micro ops) simulated (Count)
hostInstRate                                   175412                       # Simulator instruction rate (inst/s) ((Count/Second))
hostOpRate                                     336904                       # Simulator op (including micro ops) rate (op/s) ((Count/Second))
system.work_item_type0::samples                     1                       # Run time stat forwork_item_type0 (Unspecified)
system.work_item_type0::mean             105745922500                       # Run time stat forwork_item_type0 (Unspecified)
system.work_item_type0::gmean            105745922499.999939                       # Run time stat forwork_item_type0 (Unspecified)
system.work_item_type0::stdev                     nan                       # Run time stat forwork_item_type0 (Unspecified)
system.work_item_type0::0-8.58993e+09               0      0.00%      0.00% # Run time stat forwork_item_type0 (Unspecified)
system.work_item_type0::8.58993e+09-1.71799e+10            0      0.00%      0.00% # Run time stat forwork_item_type0 (Unspecified)
system.work_item_type0::1.71799e+10-2.57698e+10            0      0.00%      0.00% # Run time stat forwork_item_type0 (Unspecified)
system.work_item_type0::2.57698e+10-3.43597e+10            0      0.00%      0.00% # Run time stat forwork_item_type0 (Unspecified)
system.work_item_type0::3.43597e+10-4.29497e+10            0      0.00%      0.00% # Run time stat forwork_item_type0 (Unspecified)
system.work_item_type0::4.29497e+10-5.15396e+10            0      0.00%      0.00% # Run time stat forwork_item_type0 (Unspecified)
system.work_item_type0::5.15396e+10-6.01295e+10            0      0.00%      0.00% # Run time stat forwork_item_type0 (Unspecified)
system.work_item_type0::6.01295e+10-6.87195e+10            0      0.00%      0.00% # Run time stat forwork_item_type0 (Unspecified)
system.work_item_type0::6.87195e+10-7.73094e+10            0      0.00%      0.00% # Run time stat forwork_item_type0 (Unspecified)
system.work_item_type0::7.73094e+10-8.58993e+10            0      0.00%      0.00% # Run time stat forwork_item_type0 (Unspecified)
system.work_item_type0::8.58993e+10-9.44893e+10            0      0.00%      0.00% # Run time stat forwork_item_type0 (Unspecified)
system.work_item_type0::9.44893e+10-1.03079e+11            0      0.00%      0.00% # Run time stat forwork_item_type0 (Unspecified)
system.work_item_type0::1.03079e+11-1.11669e+11            1    100.00%    100.00% # Run time stat forwork_item_type0 (Unspecified)
system.work_item_type0::1.11669e+11-1.20259e+11            0      0.00%    100.00% # Run time stat forwork_item_type0 (Unspecified)
system.work_item_type0::1.20259e+11-1.28849e+11            0      0.00%    100.00% # Run time stat forwork_item_type0 (Unspecified)
system.work_item_type0::1.28849e+11-1.37439e+11            0      0.00%    100.00% # Run time stat forwork_item_type0 (Unspecified)
system.work_item_type0::1.37439e+11-1.46029e+11            0      0.00%    100.00% # Run time stat forwork_item_type0 (Unspecified)
system.work_item_type0::1.46029e+11-1.54619e+11            0      0.00%    100.00% # Run time stat forwork_item_type0 (Unspecified)
system.work_item_type0::1.54619e+11-1.63209e+11            0      0.00%    100.00% # Run time stat forwork_item_type0 (Unspecified)
system.work_item_type0::1.63209e+11-1.71799e+11            0      0.00%    100.00% # Run time stat forwork_item_type0 (Unspecified)
system.work_item_type0::total                       1                       # Run time stat forwork_item_type0 (Unspecified)
system.clk_domain.clock                          1000                       # Clock period in ticks (Tick)
system.cpu0.numCycles                      2253959494                       # Number of cpu cycles simulated (Cycle)
system.cpu0.numWorkItemsStarted                     1                       # Number of work items this cpu started (Count)
system.cpu0.numWorkItemsCompleted                   1                       # Number of work items this cpu completed (Count)
system.cpu0.clk_domain.clock                      500                       # Clock period in ticks (Tick)
system.cpu0.clk_domain.voltage_domain.voltage            1                       # Voltage in Volts (Volt)
system.cpu0.exec_context.thread_0.numInsts    498985801                       # Number of instructions committed (Count)
system.cpu0.exec_context.thread_0.numOps    957747964                       # Number of ops (including micro ops) committed (Count)
system.cpu0.exec_context.thread_0.numIntAluAccesses    938816360                       # Number of integer alu accesses (Count)
system.cpu0.exec_context.thread_0.numFpAluAccesses     19871386                       # Number of float alu accesses (Count)
system.cpu0.exec_context.thread_0.numVecAluAccesses            0                       # Number of vector alu accesses (Count)
system.cpu0.exec_context.thread_0.numCallsReturns     38328438                       # Number of times a function call or return occured (Count)
system.cpu0.exec_context.thread_0.numCondCtrlInsts     72974256                       # Number of instructions that are conditional controls (Count)
system.cpu0.exec_context.thread_0.numIntInsts    938816360                       # Number of integer instructions (Count)
system.cpu0.exec_context.thread_0.numFpInsts     19871386                       # Number of float instructions (Count)
system.cpu0.exec_context.thread_0.numVecInsts            0                       # Number of vector instructions (Count)
system.cpu0.exec_context.thread_0.numIntRegReads   1180923422                       # Number of times the integer registers were read (Count)
system.cpu0.exec_context.thread_0.numIntRegWrites    652624213                       # Number of times the integer registers were written (Count)
system.cpu0.exec_context.thread_0.numFpRegReads     20217479                       # Number of times the floating registers were read (Count)
system.cpu0.exec_context.thread_0.numFpRegWrites     12493835                       # Number of times the floating registers were written (Count)
system.cpu0.exec_context.thread_0.numVecRegReads            0                       # Number of times the vector registers were read (Count)
system.cpu0.exec_context.thread_0.numVecRegWrites            0                       # Number of times the vector registers were written (Count)
system.cpu0.exec_context.thread_0.numVecPredRegReads            0                       # Number of times the predicate registers were read (Count)
system.cpu0.exec_context.thread_0.numVecPredRegWrites            0                       # Number of times the predicate registers were written (Count)
system.cpu0.exec_context.thread_0.numCCRegReads    483569287                       # Number of times the CC registers were read (Count)
system.cpu0.exec_context.thread_0.numCCRegWrites    238318634                       # Number of times the CC registers were written (Count)
system.cpu0.exec_context.thread_0.numMiscRegReads    448819079                       # Number of times the Misc registers were read (Count)
system.cpu0.exec_context.thread_0.numMiscRegWrites         4978                       # Number of times the Misc registers were written (Count)
system.cpu0.exec_context.thread_0.numMemRefs    212992676                       # Number of memory refs (Count)
system.cpu0.exec_context.thread_0.numLoadInsts    131323433                       # Number of load instructions (Count)
system.cpu0.exec_context.thread_0.numStoreInsts     81669243                       # Number of store instructions (Count)
system.cpu0.exec_context.thread_0.numIdleCycles 8421128.001992                       # Number of idle cycles (Cycle)
system.cpu0.exec_context.thread_0.numBusyCycles 2245538365.998008                       # Number of busy cycles (Cycle)
system.cpu0.exec_context.thread_0.notIdleFraction     0.996264                       # Percentage of non-idle cycles (Ratio)
system.cpu0.exec_context.thread_0.idleFraction     0.003736                       # Percentage of idle cycles (Ratio)
system.cpu0.exec_context.thread_0.numBranches    126017472                       # Number of branches fetched (Count)
system.cpu0.exec_context.thread_0.statExecutedInstType::No_OpClass     11205745      1.17%      1.17% # Class of executed instruction. (Count)
system.cpu0.exec_context.thread_0.statExecutedInstType::IntAlu    727524773     75.71%     76.88% # Class of executed instruction. (Count)
system.cpu0.exec_context.thread_0.statExecutedInstType::IntMult      1230128      0.13%     77.00% # Class of executed instruction. (Count)
system.cpu0.exec_context.thread_0.statExecutedInstType::IntDiv       175706      0.02%     77.02% # Class of executed instruction. (Count)
system.cpu0.exec_context.thread_0.statExecutedInstType::FloatAdd      1828117      0.19%     77.21% # Class of executed instruction. (Count)
system.cpu0.exec_context.thread_0.statExecutedInstType::FloatCmp           87      0.00%     77.21% # Class of executed instruction. (Count)
system.cpu0.exec_context.thread_0.statExecutedInstType::FloatCvt         7258      0.00%     77.21% # Class of executed instruction. (Count)
system.cpu0.exec_context.thread_0.statExecutedInstType::FloatMult           29      0.00%     77.21% # Class of executed instruction. (Count)
system.cpu0.exec_context.thread_0.statExecutedInstType::FloatMultAcc            0      0.00%     77.21% # Class of executed instruction. (Count)
system.cpu0.exec_context.thread_0.statExecutedInstType::FloatDiv           29      0.00%     77.21% # Class of executed instruction. (Count)
system.cpu0.exec_context.thread_0.statExecutedInstType::FloatMisc            0      0.00%     77.21% # Class of executed instruction. (Count)
system.cpu0.exec_context.thread_0.statExecutedInstType::FloatSqrt            0      0.00%     77.21% # Class of executed instruction. (Count)
system.cpu0.exec_context.thread_0.statExecutedInstType::SimdAdd        23418      0.00%     77.22% # Class of executed instruction. (Count)
system.cpu0.exec_context.thread_0.statExecutedInstType::SimdAddAcc            0      0.00%     77.22% # Class of executed instruction. (Count)
system.cpu0.exec_context.thread_0.statExecutedInstType::SimdAlu       940161      0.10%     77.31% # Class of executed instruction. (Count)
system.cpu0.exec_context.thread_0.statExecutedInstType::SimdCmp         3090      0.00%     77.31% # Class of executed instruction. (Count)
system.cpu0.exec_context.thread_0.statExecutedInstType::SimdCvt       665876      0.07%     77.38% # Class of executed instruction. (Count)
system.cpu0.exec_context.thread_0.statExecutedInstType::SimdMisc      3495027      0.36%     77.75% # Class of executed instruction. (Count)
system.cpu0.exec_context.thread_0.statExecutedInstType::SimdMult            0      0.00%     77.75% # Class of executed instruction. (Count)
system.cpu0.exec_context.thread_0.statExecutedInstType::SimdMultAcc            0      0.00%     77.75% # Class of executed instruction. (Count)
system.cpu0.exec_context.thread_0.statExecutedInstType::SimdShift         9117      0.00%     77.75% # Class of executed instruction. (Count)
system.cpu0.exec_context.thread_0.statExecutedInstType::SimdShiftAcc            0      0.00%     77.75% # Class of executed instruction. (Count)
system.cpu0.exec_context.thread_0.statExecutedInstType::SimdDiv            0      0.00%     77.75% # Class of executed instruction. (Count)
system.cpu0.exec_context.thread_0.statExecutedInstType::SimdSqrt            0      0.00%     77.75% # Class of executed instruction. (Count)
system.cpu0.exec_context.thread_0.statExecutedInstType::SimdFloatAdd        92611      0.01%     77.76% # Class of executed instruction. (Count)
system.cpu0.exec_context.thread_0.statExecutedInstType::SimdFloatAlu            0      0.00%     77.76% # Class of executed instruction. (Count)
system.cpu0.exec_context.thread_0.statExecutedInstType::SimdFloatCmp            0      0.00%     77.76% # Class of executed instruction. (Count)
system.cpu0.exec_context.thread_0.statExecutedInstType::SimdFloatCvt       558799      0.06%     77.82% # Class of executed instruction. (Count)
system.cpu0.exec_context.thread_0.statExecutedInstType::SimdFloatDiv            5      0.00%     77.82% # Class of executed instruction. (Count)
system.cpu0.exec_context.thread_0.statExecutedInstType::SimdFloatMisc            0      0.00%     77.82% # Class of executed instruction. (Count)
system.cpu0.exec_context.thread_0.statExecutedInstType::SimdFloatMult       185247      0.02%     77.83% # Class of executed instruction. (Count)
system.cpu0.exec_context.thread_0.statExecutedInstType::SimdFloatMultAcc            0      0.00%     77.83% # Class of executed instruction. (Count)
system.cpu0.exec_context.thread_0.statExecutedInstType::SimdFloatSqrt            0      0.00%     77.83% # Class of executed instruction. (Count)
system.cpu0.exec_context.thread_0.statExecutedInstType::SimdReduceAdd            0      0.00%     77.83% # Class of executed instruction. (Count)
system.cpu0.exec_context.thread_0.statExecutedInstType::SimdReduceAlu            0      0.00%     77.83% # Class of executed instruction. (Count)
system.cpu0.exec_context.thread_0.statExecutedInstType::SimdReduceCmp            0      0.00%     77.83% # Class of executed instruction. (Count)
system.cpu0.exec_context.thread_0.statExecutedInstType::SimdFloatReduceAdd            0      0.00%     77.83% # Class of executed instruction. (Count)
system.cpu0.exec_context.thread_0.statExecutedInstType::SimdFloatReduceCmp            0      0.00%     77.83% # Class of executed instruction. (Count)
system.cpu0.exec_context.thread_0.statExecutedInstType::SimdAes            0      0.00%     77.83% # Class of executed instruction. (Count)
system.cpu0.exec_context.thread_0.statExecutedInstType::SimdAesMix            0      0.00%     77.83% # Class of executed instruction. (Count)
system.cpu0.exec_context.thread_0.statExecutedInstType::SimdSha1Hash            0      0.00%     77.83% # Class of executed instruction. (Count)
system.cpu0.exec_context.thread_0.statExecutedInstType::SimdSha1Hash2            0      0.00%     77.83% # Class of executed instruction. (Count)
system.cpu0.exec_context.thread_0.statExecutedInstType::SimdSha256Hash            0      0.00%     77.83% # Class of executed instruction. (Count)
system.cpu0.exec_context.thread_0.statExecutedInstType::SimdSha256Hash2            0      0.00%     77.83% # Class of executed instruction. (Count)
system.cpu0.exec_context.thread_0.statExecutedInstType::SimdShaSigma2            0      0.00%     77.83% # Class of executed instruction. (Count)
system.cpu0.exec_context.thread_0.statExecutedInstType::SimdShaSigma3            0      0.00%     77.83% # Class of executed instruction. (Count)
system.cpu0.exec_context.thread_0.statExecutedInstType::SimdPredAlu            0      0.00%     77.83% # Class of executed instruction. (Count)
system.cpu0.exec_context.thread_0.statExecutedInstType::MemRead    126760627     13.19%     91.03% # Class of executed instruction. (Count)
system.cpu0.exec_context.thread_0.statExecutedInstType::MemWrite     75313750      7.84%     98.86% # Class of executed instruction. (Count)
system.cpu0.exec_context.thread_0.statExecutedInstType::FloatMemRead      4562806      0.47%     99.34% # Class of executed instruction. (Count)
system.cpu0.exec_context.thread_0.statExecutedInstType::FloatMemWrite      6355493      0.66%    100.00% # Class of executed instruction. (Count)
system.cpu0.exec_context.thread_0.statExecutedInstType::IprAccess            0      0.00%    100.00% # Class of executed instruction. (Count)
system.cpu0.exec_context.thread_0.statExecutedInstType::InstPrefetch            0      0.00%    100.00% # Class of executed instruction. (Count)
system.cpu0.exec_context.thread_0.statExecutedInstType::total    960937899                       # Class of executed instruction. (Count)
system.cpu0.interrupts.clk_domain.clock          8000                       # Clock period in ticks (Tick)
system.cpu0.mmu.dtb.rdAccesses              131944973                       # TLB accesses on read requests (Count)
system.cpu0.mmu.dtb.wrAccesses               81898546                       # TLB accesses on write requests (Count)
system.cpu0.mmu.dtb.rdMisses                    27865                       # TLB misses on read requests (Count)
system.cpu0.mmu.dtb.wrMisses                    17870                       # TLB misses on write requests (Count)
system.cpu0.mmu.dtb.walker.power_state.pwrStateResidencyTicks::UNDEFINED 1126979747000                       # Cumulative time (in ticks) in various power states (Tick)
system.cpu0.mmu.itb.rdAccesses                      0                       # TLB accesses on read requests (Count)
system.cpu0.mmu.itb.wrAccesses              659249845                       # TLB accesses on write requests (Count)
system.cpu0.mmu.itb.rdMisses                        0                       # TLB misses on read requests (Count)
system.cpu0.mmu.itb.wrMisses                    11127                       # TLB misses on write requests (Count)
system.cpu0.mmu.itb.walker.power_state.pwrStateResidencyTicks::UNDEFINED 1126979747000                       # Cumulative time (in ticks) in various power states (Tick)
system.cpu0.power_state.numTransitions             76                       # Number of power state transitions (Count)
system.cpu0.power_state.ticksClkGated::samples           38                       # Distribution of time spent in the clock gated state (Tick)
system.cpu0.power_state.ticksClkGated::mean 110804315.789474                       # Distribution of time spent in the clock gated state (Tick)
system.cpu0.power_state.ticksClkGated::stdev 660892441.904029                       # Distribution of time spent in the clock gated state (Tick)
system.cpu0.power_state.ticksClkGated::1000-5e+10           38    100.00%    100.00% # Distribution of time spent in the clock gated state (Tick)
system.cpu0.power_state.ticksClkGated::min_value       134500                       # Distribution of time spent in the clock gated state (Tick)
system.cpu0.power_state.ticksClkGated::max_value   4076793500                       # Distribution of time spent in the clock gated state (Tick)
system.cpu0.power_state.ticksClkGated::total           38                       # Distribution of time spent in the clock gated state (Tick)
system.cpu0.power_state.pwrStateResidencyTicks::ON 1122769183000                       # Cumulative time (in ticks) in various power states (Tick)
system.cpu0.power_state.pwrStateResidencyTicks::CLK_GATED   4210564000                       # Cumulative time (in ticks) in various power states (Tick)
system.cpu0.thread_0.numInsts                       0                       # Number of Instructions committed (Count)
system.cpu0.thread_0.numOps                         0                       # Number of Ops committed (Count)
system.cpu0.thread_0.numMemRefs                     0                       # Number of Memory References (Count)
system.cpu0.workload.numSyscalls              3184489                       # Number of system calls (Count)
system.cpu0.workload.drivers0.device.dispatcher.numKernelLaunched         1051                       # number of kernel launched (Unspecified)
system.cpu0.workload.drivers0.device.dispatcher.cyclesWaitingForDispatch         3153                       # number of cycles with outstanding wavefronts that are waiting to be dispatched (Unspecified)
system.cpu0.workload.drivers0.device.hsapp.power_state.pwrStateResidencyTicks::UNDEFINED 1126979747000                       # Cumulative time (in ticks) in various power states (Tick)
system.cpu0.workload.drivers0.device.hsapp.walker.power_state.pwrStateResidencyTicks::UNDEFINED 1126979747000                       # Cumulative time (in ticks) in various power states (Tick)
system.cpu0.workload.drivers0.device.power_state.pwrStateResidencyTicks::UNDEFINED 1126979747000                       # Cumulative time (in ticks) in various power states (Tick)
system.cpu0.workload.drivers0.device.walker.power_state.pwrStateResidencyTicks::UNDEFINED 1126979747000                       # Cumulative time (in ticks) in various power states (Tick)
system.cpu1.numCycles                      2029420653                       # Number of cpu cycles simulated (Cycle)
system.cpu1.numWorkItemsStarted                     0                       # Number of work items this cpu started (Count)
system.cpu1.numWorkItemsCompleted                   0                       # Number of work items this cpu completed (Count)
system.cpu1.clk_domain.clock                      500                       # Clock period in ticks (Tick)
system.cpu1.clk_domain.voltage_domain.voltage            1                       # Voltage in Volts (Volt)
system.cpu1.exec_context.thread_0.numInsts       345763                       # Number of instructions committed (Count)
system.cpu1.exec_context.thread_0.numOps       643939                       # Number of ops (including micro ops) committed (Count)
system.cpu1.exec_context.thread_0.numIntAluAccesses       620525                       # Number of integer alu accesses (Count)
system.cpu1.exec_context.thread_0.numFpAluAccesses        20260                       # Number of float alu accesses (Count)
system.cpu1.exec_context.thread_0.numVecAluAccesses            0                       # Number of vector alu accesses (Count)
system.cpu1.exec_context.thread_0.numCallsReturns        18126                       # Number of times a function call or return occured (Count)
system.cpu1.exec_context.thread_0.numCondCtrlInsts        89425                       # Number of instructions that are conditional controls (Count)
system.cpu1.exec_context.thread_0.numIntInsts       620525                       # Number of integer instructions (Count)
system.cpu1.exec_context.thread_0.numFpInsts        20260                       # Number of float instructions (Count)
system.cpu1.exec_context.thread_0.numVecInsts            0                       # Number of vector instructions (Count)
system.cpu1.exec_context.thread_0.numIntRegReads       676026                       # Number of times the integer registers were read (Count)
system.cpu1.exec_context.thread_0.numIntRegWrites       403427                       # Number of times the integer registers were written (Count)
system.cpu1.exec_context.thread_0.numFpRegReads        24383                       # Number of times the floating registers were read (Count)
system.cpu1.exec_context.thread_0.numFpRegWrites        17004                       # Number of times the floating registers were written (Count)
system.cpu1.exec_context.thread_0.numVecRegReads            0                       # Number of times the vector registers were read (Count)
system.cpu1.exec_context.thread_0.numVecRegWrites            0                       # Number of times the vector registers were written (Count)
system.cpu1.exec_context.thread_0.numVecPredRegReads            0                       # Number of times the predicate registers were read (Count)
system.cpu1.exec_context.thread_0.numVecPredRegWrites            0                       # Number of times the predicate registers were written (Count)
system.cpu1.exec_context.thread_0.numCCRegReads       546648                       # Number of times the CC registers were read (Count)
system.cpu1.exec_context.thread_0.numCCRegWrites       187386                       # Number of times the CC registers were written (Count)
system.cpu1.exec_context.thread_0.numMiscRegReads       374281                       # Number of times the Misc registers were read (Count)
system.cpu1.exec_context.thread_0.numMiscRegWrites           27                       # Number of times the Misc registers were written (Count)
system.cpu1.exec_context.thread_0.numMemRefs       158762                       # Number of memory refs (Count)
system.cpu1.exec_context.thread_0.numLoadInsts       144013                       # Number of load instructions (Count)
system.cpu1.exec_context.thread_0.numStoreInsts        14749                       # Number of store instructions (Count)
system.cpu1.exec_context.thread_0.numIdleCycles 2028215717.305749                       # Number of idle cycles (Cycle)
system.cpu1.exec_context.thread_0.numBusyCycles 1204935.694251                       # Number of busy cycles (Cycle)
system.cpu1.exec_context.thread_0.notIdleFraction     0.000594                       # Percentage of non-idle cycles (Ratio)
system.cpu1.exec_context.thread_0.idleFraction     0.999406                       # Percentage of idle cycles (Ratio)
system.cpu1.exec_context.thread_0.numBranches       110236                       # Number of branches fetched (Count)
system.cpu1.exec_context.thread_0.statExecutedInstType::No_OpClass        10537      1.64%      1.64% # Class of executed instruction. (Count)
system.cpu1.exec_context.thread_0.statExecutedInstType::IntAlu       460517     71.51%     73.15% # Class of executed instruction. (Count)
system.cpu1.exec_context.thread_0.statExecutedInstType::IntMult            3      0.00%     73.15% # Class of executed instruction. (Count)
system.cpu1.exec_context.thread_0.statExecutedInstType::IntDiv           75      0.01%     73.16% # Class of executed instruction. (Count)
system.cpu1.exec_context.thread_0.statExecutedInstType::FloatAdd         2866      0.45%     73.61% # Class of executed instruction. (Count)
system.cpu1.exec_context.thread_0.statExecutedInstType::FloatCmp            0      0.00%     73.61% # Class of executed instruction. (Count)
system.cpu1.exec_context.thread_0.statExecutedInstType::FloatCvt           48      0.01%     73.62% # Class of executed instruction. (Count)
system.cpu1.exec_context.thread_0.statExecutedInstType::FloatMult            0      0.00%     73.62% # Class of executed instruction. (Count)
system.cpu1.exec_context.thread_0.statExecutedInstType::FloatMultAcc            0      0.00%     73.62% # Class of executed instruction. (Count)
system.cpu1.exec_context.thread_0.statExecutedInstType::FloatDiv            0      0.00%     73.62% # Class of executed instruction. (Count)
system.cpu1.exec_context.thread_0.statExecutedInstType::FloatMisc            0      0.00%     73.62% # Class of executed instruction. (Count)
system.cpu1.exec_context.thread_0.statExecutedInstType::FloatSqrt            0      0.00%     73.62% # Class of executed instruction. (Count)
system.cpu1.exec_context.thread_0.statExecutedInstType::SimdAdd           20      0.00%     73.62% # Class of executed instruction. (Count)
system.cpu1.exec_context.thread_0.statExecutedInstType::SimdAddAcc            0      0.00%     73.62% # Class of executed instruction. (Count)
system.cpu1.exec_context.thread_0.statExecutedInstType::SimdAlu         2758      0.43%     74.05% # Class of executed instruction. (Count)
system.cpu1.exec_context.thread_0.statExecutedInstType::SimdCmp            0      0.00%     74.05% # Class of executed instruction. (Count)
system.cpu1.exec_context.thread_0.statExecutedInstType::SimdCvt           40      0.01%     74.05% # Class of executed instruction. (Count)
system.cpu1.exec_context.thread_0.statExecutedInstType::SimdMisc         1544      0.24%     74.29% # Class of executed instruction. (Count)
system.cpu1.exec_context.thread_0.statExecutedInstType::SimdMult            0      0.00%     74.29% # Class of executed instruction. (Count)
system.cpu1.exec_context.thread_0.statExecutedInstType::SimdMultAcc            0      0.00%     74.29% # Class of executed instruction. (Count)
system.cpu1.exec_context.thread_0.statExecutedInstType::SimdShift           21      0.00%     74.30% # Class of executed instruction. (Count)
system.cpu1.exec_context.thread_0.statExecutedInstType::SimdShiftAcc            0      0.00%     74.30% # Class of executed instruction. (Count)
system.cpu1.exec_context.thread_0.statExecutedInstType::SimdDiv            0      0.00%     74.30% # Class of executed instruction. (Count)
system.cpu1.exec_context.thread_0.statExecutedInstType::SimdSqrt            0      0.00%     74.30% # Class of executed instruction. (Count)
system.cpu1.exec_context.thread_0.statExecutedInstType::SimdFloatAdd         1351      0.21%     74.51% # Class of executed instruction. (Count)
system.cpu1.exec_context.thread_0.statExecutedInstType::SimdFloatAlu            0      0.00%     74.51% # Class of executed instruction. (Count)
system.cpu1.exec_context.thread_0.statExecutedInstType::SimdFloatCmp            0      0.00%     74.51% # Class of executed instruction. (Count)
system.cpu1.exec_context.thread_0.statExecutedInstType::SimdFloatCvt         4047      0.63%     75.13% # Class of executed instruction. (Count)
system.cpu1.exec_context.thread_0.statExecutedInstType::SimdFloatDiv            7      0.00%     75.14% # Class of executed instruction. (Count)
system.cpu1.exec_context.thread_0.statExecutedInstType::SimdFloatMisc            0      0.00%     75.14% # Class of executed instruction. (Count)
system.cpu1.exec_context.thread_0.statExecutedInstType::SimdFloatMult         1352      0.21%     75.35% # Class of executed instruction. (Count)
system.cpu1.exec_context.thread_0.statExecutedInstType::SimdFloatMultAcc            0      0.00%     75.35% # Class of executed instruction. (Count)
system.cpu1.exec_context.thread_0.statExecutedInstType::SimdFloatSqrt            0      0.00%     75.35% # Class of executed instruction. (Count)
system.cpu1.exec_context.thread_0.statExecutedInstType::SimdReduceAdd            0      0.00%     75.35% # Class of executed instruction. (Count)
system.cpu1.exec_context.thread_0.statExecutedInstType::SimdReduceAlu            0      0.00%     75.35% # Class of executed instruction. (Count)
system.cpu1.exec_context.thread_0.statExecutedInstType::SimdReduceCmp            0      0.00%     75.35% # Class of executed instruction. (Count)
system.cpu1.exec_context.thread_0.statExecutedInstType::SimdFloatReduceAdd            0      0.00%     75.35% # Class of executed instruction. (Count)
system.cpu1.exec_context.thread_0.statExecutedInstType::SimdFloatReduceCmp            0      0.00%     75.35% # Class of executed instruction. (Count)
system.cpu1.exec_context.thread_0.statExecutedInstType::SimdAes            0      0.00%     75.35% # Class of executed instruction. (Count)
system.cpu1.exec_context.thread_0.statExecutedInstType::SimdAesMix            0      0.00%     75.35% # Class of executed instruction. (Count)
system.cpu1.exec_context.thread_0.statExecutedInstType::SimdSha1Hash            0      0.00%     75.35% # Class of executed instruction. (Count)
system.cpu1.exec_context.thread_0.statExecutedInstType::SimdSha1Hash2            0      0.00%     75.35% # Class of executed instruction. (Count)
system.cpu1.exec_context.thread_0.statExecutedInstType::SimdSha256Hash            0      0.00%     75.35% # Class of executed instruction. (Count)
system.cpu1.exec_context.thread_0.statExecutedInstType::SimdSha256Hash2            0      0.00%     75.35% # Class of executed instruction. (Count)
system.cpu1.exec_context.thread_0.statExecutedInstType::SimdShaSigma2            0      0.00%     75.35% # Class of executed instruction. (Count)
system.cpu1.exec_context.thread_0.statExecutedInstType::SimdShaSigma3            0      0.00%     75.35% # Class of executed instruction. (Count)
system.cpu1.exec_context.thread_0.statExecutedInstType::SimdPredAlu            0      0.00%     75.35% # Class of executed instruction. (Count)
system.cpu1.exec_context.thread_0.statExecutedInstType::MemRead       138458     21.50%     96.85% # Class of executed instruction. (Count)
system.cpu1.exec_context.thread_0.statExecutedInstType::MemWrite        14252      2.21%     99.06% # Class of executed instruction. (Count)
system.cpu1.exec_context.thread_0.statExecutedInstType::FloatMemRead         5555      0.86%     99.92% # Class of executed instruction. (Count)
system.cpu1.exec_context.thread_0.statExecutedInstType::FloatMemWrite          497      0.08%    100.00% # Class of executed instruction. (Count)
system.cpu1.exec_context.thread_0.statExecutedInstType::IprAccess            0      0.00%    100.00% # Class of executed instruction. (Count)
system.cpu1.exec_context.thread_0.statExecutedInstType::InstPrefetch            0      0.00%    100.00% # Class of executed instruction. (Count)
system.cpu1.exec_context.thread_0.statExecutedInstType::total       643948                       # Class of executed instruction. (Count)
system.cpu1.interrupts.clk_domain.clock          8000                       # Clock period in ticks (Tick)
system.cpu1.mmu.dtb.rdAccesses                 144013                       # TLB accesses on read requests (Count)
system.cpu1.mmu.dtb.wrAccesses                  14749                       # TLB accesses on write requests (Count)
system.cpu1.mmu.dtb.rdMisses                      156                       # TLB misses on read requests (Count)
system.cpu1.mmu.dtb.wrMisses                        3                       # TLB misses on write requests (Count)
system.cpu1.mmu.dtb.walker.power_state.pwrStateResidencyTicks::UNDEFINED 1126979747000                       # Cumulative time (in ticks) in various power states (Tick)
system.cpu1.mmu.itb.rdAccesses                      0                       # TLB accesses on read requests (Count)
system.cpu1.mmu.itb.wrAccesses                 456739                       # TLB accesses on write requests (Count)
system.cpu1.mmu.itb.rdMisses                        0                       # TLB misses on read requests (Count)
system.cpu1.mmu.itb.wrMisses                      132                       # TLB misses on write requests (Count)
system.cpu1.mmu.itb.walker.power_state.pwrStateResidencyTicks::UNDEFINED 1126979747000                       # Cumulative time (in ticks) in various power states (Tick)
system.cpu1.power_state.numTransitions              3                       # Number of power state transitions (Count)
system.cpu1.power_state.ticksClkGated::samples            2                       # Distribution of time spent in the clock gated state (Tick)
system.cpu1.power_state.ticksClkGated::mean  57168766000                       # Distribution of time spent in the clock gated state (Tick)
system.cpu1.power_state.ticksClkGated::stdev 77924092889.534119                       # Distribution of time spent in the clock gated state (Tick)
system.cpu1.power_state.ticksClkGated::1000-5e+10            1     50.00%     50.00% # Distribution of time spent in the clock gated state (Tick)
system.cpu1.power_state.ticksClkGated::1e+11-1.5e+11            1     50.00%    100.00% # Distribution of time spent in the clock gated state (Tick)
system.cpu1.power_state.ticksClkGated::min_value   2068111500                       # Distribution of time spent in the clock gated state (Tick)
system.cpu1.power_state.ticksClkGated::max_value 112269420500                       # Distribution of time spent in the clock gated state (Tick)
system.cpu1.power_state.ticksClkGated::total            2                       # Distribution of time spent in the clock gated state (Tick)
system.cpu1.power_state.pwrStateResidencyTicks::ON 1012642215000                       # Cumulative time (in ticks) in various power states (Tick)
system.cpu1.power_state.pwrStateResidencyTicks::CLK_GATED 114337532000                       # Cumulative time (in ticks) in various power states (Tick)
system.cpu1.thread_0.numInsts                       0                       # Number of Instructions committed (Count)
system.cpu1.thread_0.numOps                         0                       # Number of Ops committed (Count)
system.cpu1.thread_0.numMemRefs                     0                       # Number of Memory References (Count)
system.cpu2.numCycles                      2237862477                       # Number of cpu cycles simulated (Cycle)
system.cpu2.numWorkItemsStarted                     0                       # Number of work items this cpu started (Count)
system.cpu2.numWorkItemsCompleted                   0                       # Number of work items this cpu completed (Count)
system.cpu2.clk_domain.clock                      500                       # Clock period in ticks (Tick)
system.cpu2.clk_domain.voltage_domain.voltage            1                       # Voltage in Volts (Volt)
system.cpu2.exec_context.thread_0.numInsts     33907191                       # Number of instructions committed (Count)
system.cpu2.exec_context.thread_0.numOps     65769275                       # Number of ops (including micro ops) committed (Count)
system.cpu2.exec_context.thread_0.numIntAluAccesses     56816509                       # Number of integer alu accesses (Count)
system.cpu2.exec_context.thread_0.numFpAluAccesses     13110675                       # Number of float alu accesses (Count)
system.cpu2.exec_context.thread_0.numVecAluAccesses            0                       # Number of vector alu accesses (Count)
system.cpu2.exec_context.thread_0.numCallsReturns       465890                       # Number of times a function call or return occured (Count)
system.cpu2.exec_context.thread_0.numCondCtrlInsts      6841935                       # Number of instructions that are conditional controls (Count)
system.cpu2.exec_context.thread_0.numIntInsts     56816509                       # Number of integer instructions (Count)
system.cpu2.exec_context.thread_0.numFpInsts     13110675                       # Number of float instructions (Count)
system.cpu2.exec_context.thread_0.numVecInsts            0                       # Number of vector instructions (Count)
system.cpu2.exec_context.thread_0.numIntRegReads     62613981                       # Number of times the integer registers were read (Count)
system.cpu2.exec_context.thread_0.numIntRegWrites     37242417                       # Number of times the integer registers were written (Count)
system.cpu2.exec_context.thread_0.numFpRegReads     16819962                       # Number of times the floating registers were read (Count)
system.cpu2.exec_context.thread_0.numFpRegWrites     11242418                       # Number of times the floating registers were written (Count)
system.cpu2.exec_context.thread_0.numVecRegReads            0                       # Number of times the vector registers were read (Count)
system.cpu2.exec_context.thread_0.numVecRegWrites            0                       # Number of times the vector registers were written (Count)
system.cpu2.exec_context.thread_0.numVecPredRegReads            0                       # Number of times the predicate registers were read (Count)
system.cpu2.exec_context.thread_0.numVecPredRegWrites            0                       # Number of times the predicate registers were written (Count)
system.cpu2.exec_context.thread_0.numCCRegReads     53526557                       # Number of times the CC registers were read (Count)
system.cpu2.exec_context.thread_0.numCCRegWrites     19685426                       # Number of times the CC registers were written (Count)
system.cpu2.exec_context.thread_0.numMiscRegReads     29397608                       # Number of times the Misc registers were read (Count)
system.cpu2.exec_context.thread_0.numMiscRegWrites          311                       # Number of times the Misc registers were written (Count)
system.cpu2.exec_context.thread_0.numMemRefs     10503266                       # Number of memory refs (Count)
system.cpu2.exec_context.thread_0.numLoadInsts      9081778                       # Number of load instructions (Count)
system.cpu2.exec_context.thread_0.numStoreInsts      1421488                       # Number of store instructions (Count)
system.cpu2.exec_context.thread_0.numIdleCycles 2071445274.308434                       # Number of idle cycles (Cycle)
system.cpu2.exec_context.thread_0.numBusyCycles 166417202.691566                       # Number of busy cycles (Cycle)
system.cpu2.exec_context.thread_0.notIdleFraction     0.074364                       # Percentage of non-idle cycles (Ratio)
system.cpu2.exec_context.thread_0.idleFraction     0.925636                       # Percentage of idle cycles (Ratio)
system.cpu2.exec_context.thread_0.numBranches      8176697                       # Number of branches fetched (Count)
system.cpu2.exec_context.thread_0.statExecutedInstType::No_OpClass       700264      1.06%      1.06% # Class of executed instruction. (Count)
system.cpu2.exec_context.thread_0.statExecutedInstType::IntAlu     45526861     69.21%     70.28% # Class of executed instruction. (Count)
system.cpu2.exec_context.thread_0.statExecutedInstType::IntMult        13196      0.02%     70.30% # Class of executed instruction. (Count)
system.cpu2.exec_context.thread_0.statExecutedInstType::IntDiv        32418      0.05%     70.35% # Class of executed instruction. (Count)
system.cpu2.exec_context.thread_0.statExecutedInstType::FloatAdd      1224033      1.86%     72.21% # Class of executed instruction. (Count)
system.cpu2.exec_context.thread_0.statExecutedInstType::FloatCmp            3      0.00%     72.21% # Class of executed instruction. (Count)
system.cpu2.exec_context.thread_0.statExecutedInstType::FloatCvt          498      0.00%     72.21% # Class of executed instruction. (Count)
system.cpu2.exec_context.thread_0.statExecutedInstType::FloatMult            1      0.00%     72.21% # Class of executed instruction. (Count)
system.cpu2.exec_context.thread_0.statExecutedInstType::FloatMultAcc            0      0.00%     72.21% # Class of executed instruction. (Count)
system.cpu2.exec_context.thread_0.statExecutedInstType::FloatDiv            1      0.00%     72.21% # Class of executed instruction. (Count)
system.cpu2.exec_context.thread_0.statExecutedInstType::FloatMisc            0      0.00%     72.21% # Class of executed instruction. (Count)
system.cpu2.exec_context.thread_0.statExecutedInstType::FloatSqrt            0      0.00%     72.21% # Class of executed instruction. (Count)
system.cpu2.exec_context.thread_0.statExecutedInstType::SimdAdd          394      0.00%     72.21% # Class of executed instruction. (Count)
system.cpu2.exec_context.thread_0.statExecutedInstType::SimdAddAcc            0      0.00%     72.21% # Class of executed instruction. (Count)
system.cpu2.exec_context.thread_0.statExecutedInstType::SimdAlu      2057259      3.13%     75.33% # Class of executed instruction. (Count)
system.cpu2.exec_context.thread_0.statExecutedInstType::SimdCmp           12      0.00%     75.33% # Class of executed instruction. (Count)
system.cpu2.exec_context.thread_0.statExecutedInstType::SimdCvt          534      0.00%     75.34% # Class of executed instruction. (Count)
system.cpu2.exec_context.thread_0.statExecutedInstType::SimdMisc      1031241      1.57%     76.90% # Class of executed instruction. (Count)
system.cpu2.exec_context.thread_0.statExecutedInstType::SimdMult            0      0.00%     76.90% # Class of executed instruction. (Count)
system.cpu2.exec_context.thread_0.statExecutedInstType::SimdMultAcc            0      0.00%     76.90% # Class of executed instruction. (Count)
system.cpu2.exec_context.thread_0.statExecutedInstType::SimdShift          273      0.00%     76.90% # Class of executed instruction. (Count)
system.cpu2.exec_context.thread_0.statExecutedInstType::SimdShiftAcc            0      0.00%     76.90% # Class of executed instruction. (Count)
system.cpu2.exec_context.thread_0.statExecutedInstType::SimdDiv            0      0.00%     76.90% # Class of executed instruction. (Count)
system.cpu2.exec_context.thread_0.statExecutedInstType::SimdSqrt            0      0.00%     76.90% # Class of executed instruction. (Count)
system.cpu2.exec_context.thread_0.statExecutedInstType::SimdFloatAdd      1018962      1.55%     78.45% # Class of executed instruction. (Count)
system.cpu2.exec_context.thread_0.statExecutedInstType::SimdFloatAlu            0      0.00%     78.45% # Class of executed instruction. (Count)
system.cpu2.exec_context.thread_0.statExecutedInstType::SimdFloatCmp            0      0.00%     78.45% # Class of executed instruction. (Count)
system.cpu2.exec_context.thread_0.statExecutedInstType::SimdFloatCvt      2648125      4.03%     82.48% # Class of executed instruction. (Count)
system.cpu2.exec_context.thread_0.statExecutedInstType::SimdFloatDiv         1201      0.00%     82.48% # Class of executed instruction. (Count)
system.cpu2.exec_context.thread_0.statExecutedInstType::SimdFloatMisc            0      0.00%     82.48% # Class of executed instruction. (Count)
system.cpu2.exec_context.thread_0.statExecutedInstType::SimdFloatMult      1020912      1.55%     84.03% # Class of executed instruction. (Count)
system.cpu2.exec_context.thread_0.statExecutedInstType::SimdFloatMultAcc            0      0.00%     84.03% # Class of executed instruction. (Count)
system.cpu2.exec_context.thread_0.statExecutedInstType::SimdFloatSqrt            0      0.00%     84.03% # Class of executed instruction. (Count)
system.cpu2.exec_context.thread_0.statExecutedInstType::SimdReduceAdd            0      0.00%     84.03% # Class of executed instruction. (Count)
system.cpu2.exec_context.thread_0.statExecutedInstType::SimdReduceAlu            0      0.00%     84.03% # Class of executed instruction. (Count)
system.cpu2.exec_context.thread_0.statExecutedInstType::SimdReduceCmp            0      0.00%     84.03% # Class of executed instruction. (Count)
system.cpu2.exec_context.thread_0.statExecutedInstType::SimdFloatReduceAdd            0      0.00%     84.03% # Class of executed instruction. (Count)
system.cpu2.exec_context.thread_0.statExecutedInstType::SimdFloatReduceCmp            0      0.00%     84.03% # Class of executed instruction. (Count)
system.cpu2.exec_context.thread_0.statExecutedInstType::SimdAes            0      0.00%     84.03% # Class of executed instruction. (Count)
system.cpu2.exec_context.thread_0.statExecutedInstType::SimdAesMix            0      0.00%     84.03% # Class of executed instruction. (Count)
system.cpu2.exec_context.thread_0.statExecutedInstType::SimdSha1Hash            0      0.00%     84.03% # Class of executed instruction. (Count)
system.cpu2.exec_context.thread_0.statExecutedInstType::SimdSha1Hash2            0      0.00%     84.03% # Class of executed instruction. (Count)
system.cpu2.exec_context.thread_0.statExecutedInstType::SimdSha256Hash            0      0.00%     84.03% # Class of executed instruction. (Count)
system.cpu2.exec_context.thread_0.statExecutedInstType::SimdSha256Hash2            0      0.00%     84.03% # Class of executed instruction. (Count)
system.cpu2.exec_context.thread_0.statExecutedInstType::SimdShaSigma2            0      0.00%     84.03% # Class of executed instruction. (Count)
system.cpu2.exec_context.thread_0.statExecutedInstType::SimdShaSigma3            0      0.00%     84.03% # Class of executed instruction. (Count)
system.cpu2.exec_context.thread_0.statExecutedInstType::SimdPredAlu            0      0.00%     84.03% # Class of executed instruction. (Count)
system.cpu2.exec_context.thread_0.statExecutedInstType::MemRead      5220639      7.94%     91.97% # Class of executed instruction. (Count)
system.cpu2.exec_context.thread_0.statExecutedInstType::MemWrite      1180038      1.79%     93.76% # Class of executed instruction. (Count)
system.cpu2.exec_context.thread_0.statExecutedInstType::FloatMemRead      3861139      5.87%     99.63% # Class of executed instruction. (Count)
system.cpu2.exec_context.thread_0.statExecutedInstType::FloatMemWrite       241450      0.37%    100.00% # Class of executed instruction. (Count)
system.cpu2.exec_context.thread_0.statExecutedInstType::IprAccess            0      0.00%    100.00% # Class of executed instruction. (Count)
system.cpu2.exec_context.thread_0.statExecutedInstType::InstPrefetch            0      0.00%    100.00% # Class of executed instruction. (Count)
system.cpu2.exec_context.thread_0.statExecutedInstType::total     65779454                       # Class of executed instruction. (Count)
system.cpu2.interrupts.clk_domain.clock          8000                       # Clock period in ticks (Tick)
system.cpu2.mmu.dtb.rdAccesses                9081809                       # TLB accesses on read requests (Count)
system.cpu2.mmu.dtb.wrAccesses                1421753                       # TLB accesses on write requests (Count)
system.cpu2.mmu.dtb.rdMisses                     1481                       # TLB misses on read requests (Count)
system.cpu2.mmu.dtb.wrMisses                      587                       # TLB misses on write requests (Count)
system.cpu2.mmu.dtb.walker.power_state.pwrStateResidencyTicks::UNDEFINED 1126979747000                       # Cumulative time (in ticks) in various power states (Tick)
system.cpu2.mmu.itb.rdAccesses                      0                       # TLB accesses on read requests (Count)
system.cpu2.mmu.itb.wrAccesses               46756266                       # TLB accesses on write requests (Count)
system.cpu2.mmu.itb.rdMisses                        0                       # TLB misses on read requests (Count)
system.cpu2.mmu.itb.wrMisses                      424                       # TLB misses on write requests (Count)
system.cpu2.mmu.itb.walker.power_state.pwrStateResidencyTicks::UNDEFINED 1126979747000                       # Cumulative time (in ticks) in various power states (Tick)
system.cpu2.power_state.numTransitions           2491                       # Number of power state transitions (Count)
system.cpu2.power_state.ticksClkGated::samples         1246                       # Distribution of time spent in the clock gated state (Tick)
system.cpu2.power_state.ticksClkGated::mean 24026081.059390                       # Distribution of time spent in the clock gated state (Tick)
system.cpu2.power_state.ticksClkGated::stdev 269576885.825242                       # Distribution of time spent in the clock gated state (Tick)
system.cpu2.power_state.ticksClkGated::1000-5e+10         1246    100.00%    100.00% # Distribution of time spent in the clock gated state (Tick)
system.cpu2.power_state.ticksClkGated::min_value       303000                       # Distribution of time spent in the clock gated state (Tick)
system.cpu2.power_state.ticksClkGated::max_value   8048508500                       # Distribution of time spent in the clock gated state (Tick)
system.cpu2.power_state.ticksClkGated::total         1246                       # Distribution of time spent in the clock gated state (Tick)
system.cpu2.power_state.pwrStateResidencyTicks::ON 1097043250000                       # Cumulative time (in ticks) in various power states (Tick)
system.cpu2.power_state.pwrStateResidencyTicks::CLK_GATED  29936497000                       # Cumulative time (in ticks) in various power states (Tick)
system.cpu2.thread_0.numInsts                       0                       # Number of Instructions committed (Count)
system.cpu2.thread_0.numOps                         0                       # Number of Ops committed (Count)
system.cpu2.thread_0.numMemRefs                     0                       # Number of Memory References (Count)
system.cpu3.allLatencyDist::bucket_size         10000                       # delay distribution for all (Unspecified)
system.cpu3.allLatencyDist::min_bucket              0                       # delay distribution for all (Unspecified)
system.cpu3.allLatencyDist::max_bucket        1600000                       # delay distribution for all (Unspecified)
system.cpu3.allLatencyDist::samples           1654602                       # delay distribution for all (Unspecified)
system.cpu3.allLatencyDist::mean         302889.329881                       # delay distribution for all (Unspecified)
system.cpu3.allLatencyDist::stdev        217141.429314                       # delay distribution for all (Unspecified)
system.cpu3.allLatencyDist::underflows              0      0.00%      0.00% # delay distribution for all (Unspecified)
system.cpu3.allLatencyDist               |           0      0.00%      0.00% |           0      0.00%      0.00% |           0      0.00%      0.00% |           0      0.00%      0.00% |           0      0.00%      0.00% |           0      0.00%      0.00% |           0      0.00%      0.00% |           0      0.00%      0.00% |           0      0.00%      0.00% |           0      0.00%      0.00% |      365782     22.11%     22.11% |       53154      3.21%     25.32% |       73758      4.46%     29.78% |       44941      2.72%     32.49% |       49149      2.97%     35.46% |       48299      2.92%     38.38% |       42304      2.56%     40.94% |       32312      1.95%     42.89% |       25916      1.57%     44.46% |       29106      1.76%     46.22% |       35177      2.13%     48.34% |       33248      2.01%     50.35% |       35571      2.15%     52.50% |       19944      1.21%     53.71% |       40158      2.43%     56.14% |       38851      2.35%     58.48% |       15828      0.96%     59.44% |       12737      0.77%     60.21% |       10351      0.63%     60.84% |       11015      0.67%     61.50% |        9111      0.55%     62.05% |        7958      0.48%     62.53% |       11775      0.71%     63.24% |       15224      0.92%     64.16% |       45523      2.75%     66.92% |       27583      1.67%     68.58% |       10523      0.64%     69.22% |       13592      0.82%     70.04% |       12413      0.75%     70.79% |        7807      0.47%     71.26% |        9614      0.58%     71.84% |       10593      0.64%     72.48% |        9662      0.58%     73.07% |        9906      0.60%     73.67% |        9111      0.55%     74.22% |       17339      1.05%     75.26% |       17052      1.03%     76.30% |       10008      0.60%     76.90% |       13057      0.79%     77.69% |       13454      0.81%     78.50% |       10015      0.61%     79.11% |       11383      0.69%     79.80% |       10660      0.64%     80.44% |       19302      1.17%     81.61% |       18383      1.11%     82.72% |       10680      0.65%     83.36% |       15785      0.95%     84.32% |       14900      0.90%     85.22% |       11797      0.71%     85.93% |       12718      0.77%     86.70% |       12638      0.76%     87.46% |       18092      1.09%     88.56% |       17693      1.07%     89.63% |       11246      0.68%     90.31% |       14132      0.85%     91.16% |       11984      0.72%     91.88% |        9462      0.57%     92.46% |        9262      0.56%     93.02% |        9354      0.57%     93.58% |       11370      0.69%     94.27% |       10854      0.66%     94.92% |        7440      0.45%     95.37% |        8410      0.51%     95.88% |        7164      0.43%     96.32% |        5682      0.34%     96.66% |        5355      0.32%     96.98% |        5051      0.31%     97.29% |        5664      0.34%     97.63% |        5184      0.31%     97.94% |        3591      0.22%     98.16% |        3631      0.22%     98.38% |        2877      0.17%     98.55% |        2256      0.14%     98.69% |        2033      0.12%     98.81% |        1582      0.10%     98.91% |        1691      0.10%     99.01% |        1234      0.07%     99.08% |        1020      0.06%     99.15% |         793      0.05%     99.19% |         996      0.06%     99.25% |         666      0.04%     99.29% |         693      0.04%     99.34% |         369      0.02%     99.36% |         699      0.04%     99.40% |         426      0.03%     99.43% |         548      0.03%     99.46% |         257      0.02%     99.48% |         429      0.03%     99.50% |         224      0.01%     99.52% |         376      0.02%     99.54% |         187      0.01%     99.55% |         402      0.02%     99.57% |         316      0.02%     99.59% |         174      0.01%     99.60% |         341      0.02%     99.62% |         342      0.02%     99.64% |         187      0.01%     99.66% |         330      0.02%     99.68% |         120      0.01%     99.68% |         389      0.02%     99.71% |         275      0.02%     99.72% |         159      0.01%     99.73% |         300      0.02%     99.75% |         146      0.01%     99.76% |          79      0.00%     99.76% |         150      0.01%     99.77% |          93      0.01%     99.78% |         149      0.01%     99.79% |         211      0.01%     99.80% |          84      0.01%     99.81% |         103      0.01%     99.81% |          84      0.01%     99.82% |          72      0.00%     99.82% |          81      0.00%     99.83% |          85      0.01%     99.83% |          87      0.01%     99.84% |          92      0.01%     99.84% |          81      0.00%     99.85% |          83      0.01%     99.85% |          97      0.01%     99.86% |          99      0.01%     99.86% |         107      0.01%     99.87% |          95      0.01%     99.88% |          89      0.01%     99.88% |         110      0.01%     99.89% |          76      0.00%     99.89% |          84      0.01%     99.90% |          69      0.00%     99.90% |          94      0.01%     99.91% |          73      0.00%     99.91% |          78      0.00%     99.92% |          64      0.00%     99.92% |          87      0.01%     99.93% |          69      0.00%     99.93% |          64      0.00%     99.93% |          62      0.00%     99.94% |          54      0.00%     99.94% |          45      0.00%     99.94% |          47      0.00%     99.95% |          44      0.00%     99.95% |          58      0.00%     99.95% |          51      0.00%     99.96% |          54      0.00%     99.96% |          40      0.00%     99.96% |          54      0.00%     99.97% |          48      0.00%     99.97% |          24      0.00%     99.97% |          35      0.00%     99.97% |          35      0.00%     99.97% |          28      0.00%     99.98% |           5      0.00%     99.98% # delay distribution for all (Unspecified)
system.cpu3.allLatencyDist::overflows             404      0.02%    100.00% # delay distribution for all (Unspecified)
system.cpu3.allLatencyDist::min_value          105000                       # delay distribution for all (Unspecified)
system.cpu3.allLatencyDist::max_value         4941000                       # delay distribution for all (Unspecified)
system.cpu3.allLatencyDist::total             1654602                       # delay distribution for all (Unspecified)
system.cpu3.loadLatencyDist::bucket_size        10000                       # delay distribution for loads (Unspecified)
system.cpu3.loadLatencyDist::min_bucket             0                       # delay distribution for loads (Unspecified)
system.cpu3.loadLatencyDist::max_bucket       1600000                       # delay distribution for loads (Unspecified)
system.cpu3.loadLatencyDist::samples          1502342                       # delay distribution for loads (Unspecified)
system.cpu3.loadLatencyDist::mean        289618.396477                       # delay distribution for loads (Unspecified)
system.cpu3.loadLatencyDist::stdev       215461.502801                       # delay distribution for loads (Unspecified)
system.cpu3.loadLatencyDist::underflows             0      0.00%      0.00% # delay distribution for loads (Unspecified)
system.cpu3.loadLatencyDist              |           0      0.00%      0.00% |           0      0.00%      0.00% |           0      0.00%      0.00% |           0      0.00%      0.00% |           0      0.00%      0.00% |           0      0.00%      0.00% |           0      0.00%      0.00% |           0      0.00%      0.00% |           0      0.00%      0.00% |           0      0.00%      0.00% |      365782     24.35%     24.35% |       53154      3.54%     27.89% |       73758      4.91%     32.80% |       44941      2.99%     35.79% |       49149      3.27%     39.06% |       48299      3.21%     42.27% |       42304      2.82%     45.09% |       32312      2.15%     47.24% |       25916      1.73%     48.96% |       29106      1.94%     50.90% |       35177      2.34%     53.24% |       33248      2.21%     55.46% |       35571      2.37%     57.82% |       19944      1.33%     59.15% |       16682      1.11%     60.26% |       15260      1.02%     61.28% |       13725      0.91%     62.19% |       11424      0.76%     62.95% |        8732      0.58%     63.53% |        8439      0.56%     64.09% |        7319      0.49%     64.58% |        5987      0.40%     64.98% |        8533      0.57%     65.55% |       13049      0.87%     66.42% |       44458      2.96%     69.38% |       26482      1.76%     71.14% |        9049      0.60%     71.74% |        9254      0.62%     72.36% |        9635      0.64%     73.00% |        5721      0.38%     73.38% |        6691      0.45%     73.82% |        7462      0.50%     74.32% |        8681      0.58%     74.90% |        9218      0.61%     75.51% |        8071      0.54%     76.05% |       11609      0.77%     76.82% |       13953      0.93%     77.75% |        8499      0.57%     78.32% |        9759      0.65%     78.97% |       10065      0.67%     79.64% |        9269      0.62%     80.25% |       10907      0.73%     80.98% |        9495      0.63%     81.61% |       13390      0.89%     82.50% |       15499      1.03%     83.53% |        9664      0.64%     84.18% |       12115      0.81%     84.98% |       12033      0.80%     85.79% |       11445      0.76%     86.55% |       12422      0.83%     87.37% |       11753      0.78%     88.16% |       13346      0.89%     89.04% |       15740      1.05%     90.09% |       10378      0.69%     90.78% |       11630      0.77%     91.56% |       10217      0.68%     92.24% |        9068      0.60%     92.84% |        9048      0.60%     93.44% |        8682      0.58%     94.02% |        8597      0.57%     94.59% |        9598      0.64%     95.23% |        6901      0.46%     95.69% |        6912      0.46%     96.15% |        6055      0.40%     96.55% |        5398      0.36%     96.91% |        5091      0.34%     97.25% |        4872      0.32%     97.58% |        4265      0.28%     97.86% |        4611      0.31%     98.17% |        3370      0.22%     98.39% |        3095      0.21%     98.60% |        2603      0.17%     98.77% |        2036      0.14%     98.91% |        1811      0.12%     99.03% |        1458      0.10%     99.12% |        1168      0.08%     99.20% |        1068      0.07%     99.27% |         791      0.05%     99.33% |         677      0.05%     99.37% |         613      0.04%     99.41% |         470      0.03%     99.44% |         370      0.02%     99.47% |         307      0.02%     99.49% |         311      0.02%     99.51% |         360      0.02%     99.53% |         199      0.01%     99.55% |         208      0.01%     99.56% |         233      0.02%     99.58% |         200      0.01%     99.59% |         208      0.01%     99.60% |         154      0.01%     99.61% |         204      0.01%     99.63% |         258      0.02%     99.64% |         128      0.01%     99.65% |         151      0.01%     99.66% |         149      0.01%     99.67% |         169      0.01%     99.68% |         171      0.01%     99.69% |          95      0.01%     99.70% |         184      0.01%     99.71% |         226      0.02%     99.73% |         117      0.01%     99.74% |         111      0.01%     99.74% |         103      0.01%     99.75% |          68      0.00%     99.76% |         138      0.01%     99.76% |          87      0.01%     99.77% |         127      0.01%     99.78% |         187      0.01%     99.79% |          69      0.00%     99.80% |          81      0.01%     99.80% |          72      0.00%     99.81% |          63      0.00%     99.81% |          72      0.00%     99.81% |          80      0.01%     99.82% |          76      0.01%     99.83% |          91      0.01%     99.83% |          75      0.00%     99.84% |          82      0.01%     99.84% |          90      0.01%     99.85% |          95      0.01%     99.85% |         106      0.01%     99.86% |          93      0.01%     99.87% |          86      0.01%     99.87% |         109      0.01%     99.88% |          74      0.00%     99.89% |          82      0.01%     99.89% |          67      0.00%     99.90% |          91      0.01%     99.90% |          71      0.00%     99.91% |          77      0.01%     99.91% |          64      0.00%     99.92% |          84      0.01%     99.92% |          69      0.00%     99.93% |          61      0.00%     99.93% |          62      0.00%     99.93% |          52      0.00%     99.94% |          44      0.00%     99.94% |          44      0.00%     99.94% |          43      0.00%     99.95% |          56      0.00%     99.95% |          50      0.00%     99.95% |          52      0.00%     99.96% |          39      0.00%     99.96% |          52      0.00%     99.96% |          47      0.00%     99.97% |          24      0.00%     99.97% |          35      0.00%     99.97% |          35      0.00%     99.97% |          28      0.00%     99.97% |           5      0.00%     99.97% # delay distribution for loads (Unspecified)
system.cpu3.loadLatencyDist::overflows            392      0.03%    100.00% # delay distribution for loads (Unspecified)
system.cpu3.loadLatencyDist::min_value         105000                       # delay distribution for loads (Unspecified)
system.cpu3.loadLatencyDist::max_value        4941000                       # delay distribution for loads (Unspecified)
system.cpu3.loadLatencyDist::total            1502342                       # delay distribution for loads (Unspecified)
system.cpu3.storeLatencyDist::bucket_size        10000                       # delay distribution for stores (Unspecified)
system.cpu3.storeLatencyDist::min_bucket            0                       # delay distribution for stores (Unspecified)
system.cpu3.storeLatencyDist::max_bucket      1600000                       # delay distribution for stores (Unspecified)
system.cpu3.storeLatencyDist::samples          152260                       # delay distribution for stores (Unspecified)
system.cpu3.storeLatencyDist::mean       433832.983055                       # delay distribution for stores (Unspecified)
system.cpu3.storeLatencyDist::stdev      188248.141701                       # delay distribution for stores (Unspecified)
system.cpu3.storeLatencyDist::underflows            0      0.00%      0.00% # delay distribution for stores (Unspecified)
system.cpu3.storeLatencyDist             |           0      0.00%      0.00% |           0      0.00%      0.00% |           0      0.00%      0.00% |           0      0.00%      0.00% |           0      0.00%      0.00% |           0      0.00%      0.00% |           0      0.00%      0.00% |           0      0.00%      0.00% |           0      0.00%      0.00% |           0      0.00%      0.00% |           0      0.00%      0.00% |           0      0.00%      0.00% |           0      0.00%      0.00% |           0      0.00%      0.00% |           0      0.00%      0.00% |           0      0.00%      0.00% |           0      0.00%      0.00% |           0      0.00%      0.00% |           0      0.00%      0.00% |           0      0.00%      0.00% |           0      0.00%      0.00% |           0      0.00%      0.00% |           0      0.00%      0.00% |           0      0.00%      0.00% |       23476     15.42%     15.42% |       23591     15.49%     30.91% |        2103      1.38%     32.29% |        1313      0.86%     33.16% |        1619      1.06%     34.22% |        2576      1.69%     35.91% |        1792      1.18%     37.09% |        1971      1.29%     38.38% |        3242      2.13%     40.51% |        2175      1.43%     41.94% |        1065      0.70%     42.64% |        1101      0.72%     43.36% |        1474      0.97%     44.33% |        4338      2.85%     47.18% |        2778      1.82%     49.00% |        2086      1.37%     50.37% |        2923      1.92%     52.29% |        3131      2.06%     54.35% |         981      0.64%     54.99% |         688      0.45%     55.45% |        1040      0.68%     56.13% |        5730      3.76%     59.89% |        3099      2.04%     61.93% |        1509      0.99%     62.92% |        3298      2.17%     65.09% |        3389      2.23%     67.31% |         746      0.49%     67.80% |         476      0.31%     68.11% |        1165      0.77%     68.88% |        5912      3.88%     72.76% |        2884      1.89%     74.66% |        1016      0.67%     75.32% |        3670      2.41%     77.73% |        2867      1.88%     79.62% |         352      0.23%     79.85% |         296      0.19%     80.04% |         885      0.58%     80.62% |        4746      3.12%     83.74% |        1953      1.28%     85.02% |         868      0.57%     85.59% |        2502      1.64%     87.24% |        1767      1.16%     88.40% |         394      0.26%     88.66% |         214      0.14%     88.80% |         672      0.44%     89.24% |        2773      1.82%     91.06% |        1256      0.82%     91.88% |         539      0.35%     92.24% |        1498      0.98%     93.22% |        1109      0.73%     93.95% |         284      0.19%     94.14% |         264      0.17%     94.31% |         179      0.12%     94.43% |        1399      0.92%     95.35% |         573      0.38%     95.72% |         221      0.15%     95.87% |         536      0.35%     96.22% |         274      0.18%     96.40% |         220      0.14%     96.54% |         222      0.15%     96.69% |         124      0.08%     96.77% |         523      0.34%     97.11% |         166      0.11%     97.22% |         229      0.15%     97.37% |         116      0.08%     97.45% |         383      0.25%     97.70% |         196      0.13%     97.83% |         323      0.21%     98.04% |          62      0.04%     98.08% |         388      0.25%     98.34% |          66      0.04%     98.38% |         349      0.23%     98.61% |          49      0.03%     98.64% |         196      0.13%     98.77% |          24      0.02%     98.79% |         168      0.11%     98.90% |          33      0.02%     98.92% |         198      0.13%     99.05% |          58      0.04%     99.09% |          46      0.03%     99.12% |         190      0.12%     99.24% |         193      0.13%     99.37% |          18      0.01%     99.38% |         159      0.10%     99.49% |          25      0.02%     99.50% |         205      0.13%     99.64% |          49      0.03%     99.67% |          42      0.03%     99.70% |         189      0.12%     99.82% |          43      0.03%     99.85% |          11      0.01%     99.86% |          12      0.01%     99.86% |           6      0.00%     99.87% |          22      0.01%     99.88% |          24      0.02%     99.90% |          15      0.01%     99.91% |          22      0.01%     99.92% |          12      0.01%     99.93% |           9      0.01%     99.94% |           9      0.01%     99.94% |           5      0.00%     99.95% |          11      0.01%     99.95% |           1      0.00%     99.95% |           6      0.00%     99.96% |           1      0.00%     99.96% |           7      0.00%     99.96% |           4      0.00%     99.97% |           1      0.00%     99.97% |           2      0.00%     99.97% |           3      0.00%     99.97% |           1      0.00%     99.97% |           2      0.00%     99.97% |           2      0.00%     99.97% |           2      0.00%     99.97% |           3      0.00%     99.98% |           2      0.00%     99.98% |           1      0.00%     99.98% |           0      0.00%     99.98% |           3      0.00%     99.98% |           0      0.00%     99.98% |           3      0.00%     99.98% |           0      0.00%     99.98% |           2      0.00%     99.98% |           1      0.00%     99.98% |           3      0.00%     99.99% |           1      0.00%     99.99% |           2      0.00%     99.99% |           1      0.00%     99.99% |           2      0.00%     99.99% |           1      0.00%     99.99% |           2      0.00%     99.99% |           1      0.00%     99.99% |           0      0.00%     99.99% |           0      0.00%     99.99% |           0      0.00%     99.99% |           0      0.00%     99.99% |           0      0.00%     99.99% # delay distribution for stores (Unspecified)
system.cpu3.storeLatencyDist::overflows            12      0.01%    100.00% # delay distribution for stores (Unspecified)
system.cpu3.storeLatencyDist::min_value        249000                       # delay distribution for stores (Unspecified)
system.cpu3.storeLatencyDist::max_value       2489000                       # delay distribution for stores (Unspecified)
system.cpu3.storeLatencyDist::total            152260                       # delay distribution for stores (Unspecified)
system.cpu3.initToCoalesceLatency::bucket_size        10000                       # Ticks from vmem inst initiateAcc to coalescer issue (Unspecified)
system.cpu3.initToCoalesceLatency::min_bucket            0                       # Ticks from vmem inst initiateAcc to coalescer issue (Unspecified)
system.cpu3.initToCoalesceLatency::max_bucket      1600000                       # Ticks from vmem inst initiateAcc to coalescer issue (Unspecified)
system.cpu3.initToCoalesceLatency::samples            0                       # Ticks from vmem inst initiateAcc to coalescer issue (Unspecified)
system.cpu3.initToCoalesceLatency::mean           nan                       # Ticks from vmem inst initiateAcc to coalescer issue (Unspecified)
system.cpu3.initToCoalesceLatency::stdev          nan                       # Ticks from vmem inst initiateAcc to coalescer issue (Unspecified)
system.cpu3.initToCoalesceLatency::underflows            0                       # Ticks from vmem inst initiateAcc to coalescer issue (Unspecified)
[...]
system.cpu3.cacheBlockRoundTrip7::overflows            0                       # Coalsr-to-coalsr time for the Nth cache block in an inst (Unspecified)
system.cpu3.cacheBlockRoundTrip7::min_value            0                       # Coalsr-to-coalsr time for the Nth cache block in an inst (Unspecified)
system.cpu3.cacheBlockRoundTrip7::max_value            0                       # Coalsr-to-coalsr time for the Nth cache block in an inst (Unspecified)
system.cpu3.cacheBlockRoundTrip7::total             0                       # Coalsr-to-coalsr time for the Nth cache block in an inst (Unspecified)
system.cpu3.cacheBlockRoundTrip8::bucket_size        10000                       # Coalsr-to-coalsr time for the Nth cache block in an inst (Unspecified)
system.cpu3.cacheBlockRoundTrip8::min_bucket            0                       # Coalsr-to-coalsr time for the Nth cache block in an inst (Unspecified)
system.cpu3.cacheBlockRoundTrip8::max_bucket      1600000                       # Coalsr-to-coalsr time for the Nth cache block in an inst (Unspecified)
system.cpu3.cacheBlockRoundTrip8::samples            0                       # Coalsr-to-coalsr time for the Nth cache block in an inst (Unspecified)
system.cpu3.cacheBlockRoundTrip8::mean            nan                       # Coalsr-to-coalsr time for the Nth cache block in an inst (Unspecified)
system.cpu3.cacheBlockRoundTrip8::stdev           nan                       # Coalsr-to-coalsr time for the Nth cache block in an inst (Unspecified)
system.cpu3.cacheBlockRoundTrip8::underflows            0                       # Coalsr-to-coalsr time for the Nth cache block in an inst (Unspecified)
system.cpu3.cacheBlockRoundTrip8         |           0                       |           0                       |           0                       |           0                       |           0                       |           0                       |           0                       |           0                       |           0                       |           0                       |           0                       |           0                       |           0                       |           0                       |           0                       |           0                       |           0                       |           0                       |           0                       |           0                       |           0                       |           0                       |           0                       |           0                       |           0                       |           0                       |           0                       |           0                       |           0                       |           0                       |           0                       |           0                       |           0                       |           0                       |           0                       |           0                       |           0                       |           0                       |           0                       |           0                       |           0                       |           0                       |           0                       |           0                       |           0                       |           0                       |           0                       |           0                       |           0                       |           0                       |           0                       |           0                       |           0                       |           0                       |           0                       |           0                       |           0                       |           0                       |           0                       |           0                       |           0                       |           0                       |           0                       |           0                       |           0                       |           0                       |           0                       |           0                       |           0                       |           0                       |           0                       |           0                       |           0                       |           0                       |           0                       |           0                       |           0                       |           0                       |           0                       |           0                       |           0                       |           0                       |           0                       |           0                       |           0                       |           0                       |           0                       |           0                       |           0                       |           0                       |           0                       |           0                       |           0                       |           0                       |           0                       |           0                       |           0                       |           0                       |           0                       |           0                       |           0                       |           0                       |           0                       |           0                       |           0                       |           0                       |           0                       |           0                       |           0                       |           0                       |           0                       |           0                       |           0                       |           0                       |           0                       |           0                       |           0                       |           0                       |           0                       |           0                       |           0                       |           0                       |           0                       |           0                       |           0                       |           0                       |           0                       |           0                       |           0                       |           0                       |           0                       |           0                       |           0                       |           0                       |           0                       |           0                       |           0                       |           0                       |           0                       |           0                       |           0                       |           0                       |           0                       |           0                       |           0                       |           0                       |           0                       |           0                       |           0                       |           0                       |           0                       |           0                       |           0                       |           0                       |           0                       |           0                       |           0                       |           0                       |           0                       |           0                       |           0                       # Coalsr-to-coalsr time for the Nth cache block in an inst (Unspecified)
system.cpu3.cacheBlockRoundTrip8::overflows            0                       # Coalsr-to-coalsr time for the Nth cache block in an inst (Unspecified)
system.cpu3.cacheBlockRoundTrip8::min_value            0                       # Coalsr-to-coalsr time for the Nth cache block in an inst (Unspecified)
system.cpu3.cacheBlockRoundTrip8::max_value            0                       # Coalsr-to-coalsr time for the Nth cache block in an inst (Unspecified)
system.cpu3.cacheBlockRoundTrip8::total             0                       # Coalsr-to-coalsr time for the Nth cache block in an inst (Unspecified)
system.cpu3.cacheBlockRoundTrip9::bucket_size        10000                       # Coalsr-to-coalsr time for the Nth cache block in an inst (Unspecified)
system.cpu3.cacheBlockRoundTrip9::min_bucket            0                       # Coalsr-to-coalsr time for the Nth cache block in an inst (Unspecified)
system.cpu3.cacheBlockRoundTrip9::max_bucket      1600000                       # Coalsr-to-coalsr time for the Nth cache block in an inst (Unspecified)
system.cpu3.cacheBlockRoundTrip9::samples            0                       # Coalsr-to-coalsr time for the Nth cache block in an inst (Unspecified)
system.cpu3.cacheBlockRoundTrip9::mean            nan                       # Coalsr-to-coalsr time for the Nth cache block in an inst (Unspecified)
system.cpu3.cacheBlockRoundTrip9::stdev           nan                       # Coalsr-to-coalsr time for the Nth cache block in an inst (Unspecified)
system.cpu3.cacheBlockRoundTrip9::underflows            0                       # Coalsr-to-coalsr time for the Nth cache block in an inst (Unspecified)
system.cpu3.cacheBlockRoundTrip9         |           0                       |           0                       |           0                       |           0                       |           0                       |           0                       |           0                       |           0                       |           0                       |           0                       |           0                       |           0                       |           0                       |           0                       |           0                       |           0                       |           0                       |           0                       |           0                       |           0                       |           0                       |           0                       |           0                       |           0                       |           0                       |           0                       |           0                       |           0                       |           0                       |           0                       |           0                       |           0                       |           0                       |           0                       |           0                       |           0                       |           0                       |           0                       |           0                       |           0                       |           0                       |           0                       |           0                       |           0                       |           0                       |           0                       |           0                       |           0                       |           0                       |           0                       |           0                       |           0                       |           0                       |           0                       |           0                       |           0                       |           0                       |           0                       |           0                       |           0                       |           0                       |           0                       |           0                       |           0                       |           0                       |           0                       |           0                       |           0                       |           0                       |           0                       |           0                       |           0                       |           0                       |           0                       |           0                       |           0                       |           0                       |           0                       |           0                       |           0                       |           0                       |           0                       |           0                       |           0                       |           0                       |           0                       |           0                       |           0                       |           0                       |           0                       |           0                       |           0                       |           0                       |           0                       |           0                       |           0                       |           0                       |           0                       |           0                       |           0                       |           0                       |           0                       |           0                       |           0                       |           0                       |           0                       |           0                       |           0                       |           0                       |           0                       |           0                       |           0                       |           0                       |           0                       |           0                       |           0                       |           0                       |           0                       |           0                       |           0                       |           0                       |           0                       |           0                       |           0                       |           0                       |           0                       |           0                       |           0                       |           0                       |           0                       |           0                       |           0                       |           0                       |           0                       |           0                       |           0                       |           0                       |           0                       |           0                       |           0                       |           0                       |           0                       |           0                       |           0                       |           0                       |           0                       |           0                       |           0                       |           0                       |           0                       |           0                       |           0                       |           0                       |           0                       |           0                       |           0                       |           0                       |           0                       |           0                       |           0                       |           0                       # Coalsr-to-coalsr time for the Nth cache block in an inst (Unspecified)
system.cpu3.cacheBlockRoundTrip9::overflows            0                       # Coalsr-to-coalsr time for the Nth cache block in an inst (Unspecified)
system.cpu3.cacheBlockRoundTrip9::min_value            0                       # Coalsr-to-coalsr time for the Nth cache block in an inst (Unspecified)
system.cpu3.cacheBlockRoundTrip9::max_value            0                       # Coalsr-to-coalsr time for the Nth cache block in an inst (Unspecified)
system.cpu3.cacheBlockRoundTrip9::total             0                       # Coalsr-to-coalsr time for the Nth cache block in an inst (Unspecified)

---------- End Simulation Statistics   ----------
