
---------- Begin Simulation Statistics ----------
simSeconds                                   2.736781                       # Number of seconds simulated (Second)
simTicks                                 2736780749500                       # Number of ticks simulated (Tick)
finalTick                                2736780749500                       # Number of ticks from beginning of simulation (restored from checkpoints and never reset) (Tick)
simFreq                                  1000000000000                       # The number of ticks per simulated second ((Tick/Second))
hostSeconds                                   2300.14                       # Real time elapsed on the host (Second)
hostTickRate                               1189834539                       # The number of ticks simulated per host second (ticks/s) ((Tick/Second))
hostMemory                                   20730360                       # Number of bytes of host memory used (Byte)
simInsts                                   1449119093                       # Number of instructions simulated (Count)
simOps                                     3275214585                       # Number of ops (including micro ops) simulated (Count)
hostInstRate                                   630015                       # Simulator instruction rate (inst/s) ((Count/Second))
hostOpRate                                    1423922                       # Simulator op (including micro ops) rate (op/s) ((Count/Second))
system.work_item_type0::samples                     1                       # Run time stat forwork_item_type0 (Unspecified)
system.work_item_type0::mean              80346112000                       # Run time stat forwork_item_type0 (Unspecified)
system.work_item_type0::gmean            80346112000.000015                       # Run time stat forwork_item_type0 (Unspecified)
system.work_item_type0::stdev                     nan                       # Run time stat forwork_item_type0 (Unspecified)
system.work_item_type0::0-4.29497e+09               0      0.00%      0.00% # Run time stat forwork_item_type0 (Unspecified)
system.work_item_type0::4.29497e+09-8.58993e+09            0      0.00%      0.00% # Run time stat forwork_item_type0 (Unspecified)
system.work_item_type0::8.58993e+09-1.28849e+10            0      0.00%      0.00% # Run time stat forwork_item_type0 (Unspecified)
system.work_item_type0::1.28849e+10-1.71799e+10            0      0.00%      0.00% # Run time stat forwork_item_type0 (Unspecified)
system.work_item_type0::1.71799e+10-2.14748e+10            0      0.00%      0.00% # Run time stat forwork_item_type0 (Unspecified)
system.work_item_type0::2.14748e+10-2.57698e+10            0      0.00%      0.00% # Run time stat forwork_item_type0 (Unspecified)
system.work_item_type0::2.57698e+10-3.00648e+10            0      0.00%      0.00% # Run time stat forwork_item_type0 (Unspecified)
system.work_item_type0::3.00648e+10-3.43597e+10            0      0.00%      0.00% # Run time stat forwork_item_type0 (Unspecified)
system.work_item_type0::3.43597e+10-3.86547e+10            0      0.00%      0.00% # Run time stat forwork_item_type0 (Unspecified)
system.work_item_type0::3.86547e+10-4.29497e+10            0      0.00%      0.00% # Run time stat forwork_item_type0 (Unspecified)
system.work_item_type0::4.29497e+10-4.72446e+10            0      0.00%      0.00% # Run time stat forwork_item_type0 (Unspecified)
system.work_item_type0::4.72446e+10-5.15396e+10            0      0.00%      0.00% # Run time stat forwork_item_type0 (Unspecified)
system.work_item_type0::5.15396e+10-5.58346e+10            0      0.00%      0.00% # Run time stat forwork_item_type0 (Unspecified)
system.work_item_type0::5.58346e+10-6.01295e+10            0      0.00%      0.00% # Run time stat forwork_item_type0 (Unspecified)
system.work_item_type0::6.01295e+10-6.44245e+10            0      0.00%      0.00% # Run time stat forwork_item_type0 (Unspecified)
system.work_item_type0::6.44245e+10-6.87195e+10            0      0.00%      0.00% # Run time stat forwork_item_type0 (Unspecified)
system.work_item_type0::6.87195e+10-7.30144e+10            0      0.00%      0.00% # Run time stat forwork_item_type0 (Unspecified)
system.work_item_type0::7.30144e+10-7.73094e+10            0      0.00%      0.00% # Run time stat forwork_item_type0 (Unspecified)
system.work_item_type0::7.73094e+10-8.16044e+10            1    100.00%    100.00% # Run time stat forwork_item_type0 (Unspecified)
system.work_item_type0::8.16044e+10-8.58993e+10            0      0.00%    100.00% # Run time stat forwork_item_type0 (Unspecified)
system.work_item_type0::total                       1                       # Run time stat forwork_item_type0 (Unspecified)
system.clk_domain.clock                          1000                       # Clock period in ticks (Tick)
system.cpu0.numCycles                      5473561499                       # Number of cpu cycles simulated (Cycle)
system.cpu0.cpi                              3.779453                       # CPI: cycles per instruction (core level) ((Cycle/Count))
system.cpu0.ipc                              0.264589                       # IPC: instructions per cycle (core level) ((Count/Cycle))
system.cpu0.numWorkItemsStarted                     1                       # Number of work items this cpu started (Count)
system.cpu0.numWorkItemsCompleted                   1                       # Number of work items this cpu completed (Count)
system.cpu0.clk_domain.clock                      500                       # Clock period in ticks (Tick)
system.cpu0.clk_domain.voltage_domain.voltage            1                       # Voltage in Volts (Volt)
system.cpu0.commitStats0.numInsts          1448241869                       # Number of instructions committed (thread level) (Count)
system.cpu0.commitStats0.numOps            3269755091                       # Number of ops (including micro ops) committed (thread level) (Count)
system.cpu0.commitStats0.numInstsNotNOP             0                       # Number of instructions committed excluding NOPs or prefetches (Count)
system.cpu0.commitStats0.numOpsNotNOP               0                       # Number of Ops (including micro ops) Simulated (Count)
system.cpu0.commitStats0.cpi                 3.779453                       # CPI: cycles per instruction (thread level) ((Cycle/Count))
system.cpu0.commitStats0.ipc                 0.264589                       # IPC: instructions per cycle (thread level) ((Count/Cycle))
system.cpu0.commitStats0.numMemRefs                 0                       # Number of memory references committed (Count)
system.cpu0.commitStats0.numFpInsts          46611459                       # Number of float instructions (Count)
system.cpu0.commitStats0.numIntInsts       3052139167                       # Number of integer instructions (Count)
system.cpu0.commitStats0.numLoadInsts       286404832                       # Number of load instructions (Count)
system.cpu0.commitStats0.numStoreInsts      297668293                       # Number of store instructions (Count)
system.cpu0.commitStats0.numVecInsts                0                       # Number of vector instructions (Count)
system.cpu0.commitStats0.committedInstType::No_OpClass     57117031      1.75%      1.75% # Class of committed instruction. (Count)
system.cpu0.commitStats0.committedInstType::IntAlu   2588952354     79.18%     80.93% # Class of committed instruction. (Count)
system.cpu0.commitStats0.committedInstType::IntMult     12584624      0.38%     81.31% # Class of committed instruction. (Count)
system.cpu0.commitStats0.committedInstType::IntDiv        71239      0.00%     81.31% # Class of committed instruction. (Count)
system.cpu0.commitStats0.committedInstType::FloatAdd      2302593      0.07%     81.38% # Class of committed instruction. (Count)
system.cpu0.commitStats0.committedInstType::FloatCmp           66      0.00%     81.38% # Class of committed instruction. (Count)
system.cpu0.commitStats0.committedInstType::FloatCvt         7196      0.00%     81.38% # Class of committed instruction. (Count)
system.cpu0.commitStats0.committedInstType::FloatMult           22      0.00%     81.38% # Class of committed instruction. (Count)
system.cpu0.commitStats0.committedInstType::FloatMultAcc            0      0.00%     81.38% # Class of committed instruction. (Count)
system.cpu0.commitStats0.committedInstType::FloatDiv           22      0.00%     81.38% # Class of committed instruction. (Count)
system.cpu0.commitStats0.committedInstType::FloatMisc            0      0.00%     81.38% # Class of committed instruction. (Count)
system.cpu0.commitStats0.committedInstType::FloatSqrt            0      0.00%     81.38% # Class of committed instruction. (Count)
system.cpu0.commitStats0.committedInstType::SimdAdd        19546      0.00%     81.38% # Class of committed instruction. (Count)
system.cpu0.commitStats0.committedInstType::SimdAddAcc            0      0.00%     81.38% # Class of committed instruction. (Count)
system.cpu0.commitStats0.committedInstType::SimdAlu      6020716      0.18%     81.57% # Class of committed instruction. (Count)
system.cpu0.commitStats0.committedInstType::SimdCmp       283500      0.01%     81.58% # Class of committed instruction. (Count)
system.cpu0.commitStats0.committedInstType::SimdCvt      5265286      0.16%     81.74% # Class of committed instruction. (Count)
system.cpu0.commitStats0.committedInstType::SimdMisc     11318229      0.35%     82.08% # Class of committed instruction. (Count)
system.cpu0.commitStats0.committedInstType::SimdMult            0      0.00%     82.08% # Class of committed instruction. (Count)
system.cpu0.commitStats0.committedInstType::SimdMultAcc            0      0.00%     82.08% # Class of committed instruction. (Count)
system.cpu0.commitStats0.committedInstType::SimdMatMultAcc            0      0.00%     82.08% # Class of committed instruction. (Count)
system.cpu0.commitStats0.committedInstType::SimdShift         8769      0.00%     82.08% # Class of committed instruction. (Count)
system.cpu0.commitStats0.committedInstType::SimdShiftAcc            0      0.00%     82.08% # Class of committed instruction. (Count)
system.cpu0.commitStats0.committedInstType::SimdDiv            0      0.00%     82.08% # Class of committed instruction. (Count)
system.cpu0.commitStats0.committedInstType::SimdSqrt            0      0.00%     82.08% # Class of committed instruction. (Count)
system.cpu0.commitStats0.committedInstType::SimdFloatAdd        92609      0.00%     82.09% # Class of committed instruction. (Count)
system.cpu0.commitStats0.committedInstType::SimdFloatAlu            0      0.00%     82.09% # Class of committed instruction. (Count)
system.cpu0.commitStats0.committedInstType::SimdFloatCmp            0      0.00%     82.09% # Class of committed instruction. (Count)
system.cpu0.commitStats0.committedInstType::SimdFloatCvt      1452916      0.04%     82.13% # Class of committed instruction. (Count)
system.cpu0.commitStats0.committedInstType::SimdFloatDiv            5      0.00%     82.13% # Class of committed instruction. (Count)
system.cpu0.commitStats0.committedInstType::SimdFloatMisc            0      0.00%     82.13% # Class of committed instruction. (Count)
system.cpu0.commitStats0.committedInstType::SimdFloatMult       185243      0.01%     82.14% # Class of committed instruction. (Count)
system.cpu0.commitStats0.committedInstType::SimdFloatMultAcc            0      0.00%     82.14% # Class of committed instruction. (Count)
system.cpu0.commitStats0.committedInstType::SimdFloatMatMultAcc            0      0.00%     82.14% # Class of committed instruction. (Count)
system.cpu0.commitStats0.committedInstType::SimdFloatSqrt            0      0.00%     82.14% # Class of committed instruction. (Count)
system.cpu0.commitStats0.committedInstType::SimdReduceAdd            0      0.00%     82.14% # Class of committed instruction. (Count)
system.cpu0.commitStats0.committedInstType::SimdReduceAlu            0      0.00%     82.14% # Class of committed instruction. (Count)
system.cpu0.commitStats0.committedInstType::SimdReduceCmp            0      0.00%     82.14% # Class of committed instruction. (Count)
system.cpu0.commitStats0.committedInstType::SimdFloatReduceAdd            0      0.00%     82.14% # Class of committed instruction. (Count)
system.cpu0.commitStats0.committedInstType::SimdFloatReduceCmp            0      0.00%     82.14% # Class of committed instruction. (Count)
system.cpu0.commitStats0.committedInstType::SimdAes            0      0.00%     82.14% # Class of committed instruction. (Count)
system.cpu0.commitStats0.committedInstType::SimdAesMix            0      0.00%     82.14% # Class of committed instruction. (Count)
system.cpu0.commitStats0.committedInstType::SimdSha1Hash            0      0.00%     82.14% # Class of committed instruction. (Count)
system.cpu0.commitStats0.committedInstType::SimdSha1Hash2            0      0.00%     82.14% # Class of committed instruction. (Count)
system.cpu0.commitStats0.committedInstType::SimdSha256Hash            0      0.00%     82.14% # Class of committed instruction. (Count)
system.cpu0.commitStats0.committedInstType::SimdSha256Hash2            0      0.00%     82.14% # Class of committed instruction. (Count)
system.cpu0.commitStats0.committedInstType::SimdShaSigma2            0      0.00%     82.14% # Class of committed instruction. (Count)
system.cpu0.commitStats0.committedInstType::SimdShaSigma3            0      0.00%     82.14% # Class of committed instruction. (Count)
system.cpu0.commitStats0.committedInstType::SimdPredAlu            0      0.00%     82.14% # Class of committed instruction. (Count)
system.cpu0.commitStats0.committedInstType::Matrix            0      0.00%     82.14% # Class of committed instruction. (Count)
system.cpu0.commitStats0.committedInstType::MatrixMov            0      0.00%     82.14% # Class of committed instruction. (Count)
system.cpu0.commitStats0.committedInstType::MatrixOP            0      0.00%     82.14% # Class of committed instruction. (Count)
system.cpu0.commitStats0.committedInstType::MemRead    277383572      8.48%     90.62% # Class of committed instruction. (Count)
system.cpu0.commitStats0.committedInstType::MemWrite    289927461      8.87%     99.49% # Class of committed instruction. (Count)
system.cpu0.commitStats0.committedInstType::FloatMemRead      9021260      0.28%     99.76% # Class of committed instruction. (Count)
system.cpu0.commitStats0.committedInstType::FloatMemWrite      7740832      0.24%    100.00% # Class of committed instruction. (Count)
system.cpu0.commitStats0.committedInstType::IprAccess            0      0.00%    100.00% # Class of committed instruction. (Count)
system.cpu0.commitStats0.committedInstType::InstPrefetch            0      0.00%    100.00% # Class of committed instruction. (Count)
system.cpu0.commitStats0.committedInstType::VectorUnitStrideLoad            0      0.00%    100.00% # Class of committed instruction. (Count)
system.cpu0.commitStats0.committedInstType::VectorUnitStrideStore            0      0.00%    100.00% # Class of committed instruction. (Count)
system.cpu0.commitStats0.committedInstType::VectorUnitStrideMaskLoad            0      0.00%    100.00% # Class of committed instruction. (Count)
system.cpu0.commitStats0.committedInstType::VectorUnitStrideMaskStore            0      0.00%    100.00% # Class of committed instruction. (Count)
system.cpu0.commitStats0.committedInstType::VectorStridedLoad            0      0.00%    100.00% # Class of committed instruction. (Count)
system.cpu0.commitStats0.committedInstType::VectorStridedStore            0      0.00%    100.00% # Class of committed instruction. (Count)
system.cpu0.commitStats0.committedInstType::VectorIndexedLoad            0      0.00%    100.00% # Class of committed instruction. (Count)
system.cpu0.commitStats0.committedInstType::VectorIndexedStore            0      0.00%    100.00% # Class of committed instruction. (Count)
system.cpu0.commitStats0.committedInstType::VectorUnitStrideFaultOnlyFirstLoad            0      0.00%    100.00% # Class of committed instruction. (Count)
system.cpu0.commitStats0.committedInstType::VectorWholeRegisterLoad            0      0.00%    100.00% # Class of committed instruction. (Count)
system.cpu0.commitStats0.committedInstType::VectorWholeRegisterStore            0      0.00%    100.00% # Class of committed instruction. (Count)
system.cpu0.commitStats0.committedInstType::VectorIntegerArith            0      0.00%    100.00% # Class of committed instruction. (Count)
system.cpu0.commitStats0.committedInstType::VectorFloatArith            0      0.00%    100.00% # Class of committed instruction. (Count)
system.cpu0.commitStats0.committedInstType::VectorFloatConvert            0      0.00%    100.00% # Class of committed instruction. (Count)
system.cpu0.commitStats0.committedInstType::VectorIntegerReduce            0      0.00%    100.00% # Class of committed instruction. (Count)
system.cpu0.commitStats0.committedInstType::VectorFloatReduce            0      0.00%    100.00% # Class of committed instruction. (Count)
system.cpu0.commitStats0.committedInstType::VectorMisc            0      0.00%    100.00% # Class of committed instruction. (Count)
system.cpu0.commitStats0.committedInstType::VectorIntegerExtension            0      0.00%    100.00% # Class of committed instruction. (Count)
system.cpu0.commitStats0.committedInstType::VectorConfig            0      0.00%    100.00% # Class of committed instruction. (Count)
system.cpu0.commitStats0.committedInstType::total   3269755091                       # Class of committed instruction. (Count)
system.cpu0.commitStats0.committedControl::IsControl    472888150                       # Class of control type instructions committed (Count)
system.cpu0.commitStats0.committedControl::IsDirectControl    434655164                       # Class of control type instructions committed (Count)
system.cpu0.commitStats0.committedControl::IsIndirectControl     38231639                       # Class of control type instructions committed (Count)
system.cpu0.commitStats0.committedControl::IsCondControl    390381519                       # Class of control type instructions committed (Count)
system.cpu0.commitStats0.committedControl::IsUncondControl     82505284                       # Class of control type instructions committed (Count)
system.cpu0.commitStats0.committedControl::IsCall     22325809                       # Class of control type instructions committed (Count)
system.cpu0.commitStats0.committedControl::IsReturn     22325791                       # Class of control type instructions committed (Count)
system.cpu0.exec_context.thread_0.numMatAluAccesses            0                       # Number of matrix alu accesses (Count)
system.cpu0.exec_context.thread_0.numCallsReturns     44651600                       # Number of times a function call or return occured (Count)
system.cpu0.exec_context.thread_0.numMatInsts            0                       # Number of matrix instructions (Count)
system.cpu0.exec_context.thread_0.numIdleCycles 8488879.001997                       # Number of idle cycles (Cycle)
system.cpu0.exec_context.thread_0.numBusyCycles 5465072619.998003                       # Number of busy cycles (Cycle)
system.cpu0.exec_context.thread_0.notIdleFraction     0.998449                       # Percentage of non-idle cycles (Ratio)
system.cpu0.exec_context.thread_0.idleFraction     0.001551                       # Percentage of idle cycles (Ratio)
system.cpu0.executeStats0.numInsts                  0                       # Number of executed instructions (Count)
system.cpu0.executeStats0.numNop                    0                       # Number of nop insts executed (Count)
system.cpu0.executeStats0.numBranches               0                       # Number of branches executed (Count)
system.cpu0.executeStats0.numLoadInsts              0                       # Number of load instructions executed (Count)
system.cpu0.executeStats0.numStoreInsts     584073125                       # Number of stores executed (Count)
system.cpu0.executeStats0.instRate                  0                       # Inst execution rate ((Count/Cycle))
system.cpu0.executeStats0.numFpAluAccesses     46611459                       # Number of float alu accesses (Count)
system.cpu0.executeStats0.numFpRegReads      64560478                       # Number of times the floating registers were read (Count)
system.cpu0.executeStats0.numFpRegWrites     33169958                       # Number of times the floating registers were written (Count)
system.cpu0.executeStats0.numIntAluAccesses   3052139167                       # Number of integer alu accesses (Count)
system.cpu0.executeStats0.numIntRegReads   4126523316                       # Number of times the integer registers were read (Count)
system.cpu0.executeStats0.numIntRegWrites   2156503149                       # Number of times the integer registers were written (Count)
system.cpu0.executeStats0.numMemRefs        584073125                       # Number of memory refs (Count)
system.cpu0.executeStats0.numMiscRegReads   1262418725                       # Number of times the Misc registers were read (Count)
system.cpu0.executeStats0.numMiscRegWrites         4727                       # Number of times the Misc registers were written (Count)
system.cpu0.executeStats0.numVecAluAccesses            0                       # Number of vector alu accesses (Count)
system.cpu0.executeStats0.numDiscardedOps            0                       # Number of ops (including micro ops) which were discarded before commit (Count)
system.cpu0.fetchStats0.numInsts           1448241869                       # Number of instructions fetched (thread level) (Count)
system.cpu0.fetchStats0.numOps             3269755091                       # Number of ops (including micro ops) fetched (thread level) (Count)
system.cpu0.fetchStats0.fetchRate            0.264589                       # Number of inst fetches per cycle ((Count/Cycle))
system.cpu0.fetchStats0.numBranches         472888150                       # Number of branches fetched (Count)
system.cpu0.fetchStats0.branchRate           0.086395                       # Number of branch fetches per cycle (Ratio)
system.cpu0.fetchStats0.numFetchSuspends            0                       # Number of times Execute suspended instruction fetching (Count)
system.cpu0.interrupts.clk_domain.clock          8000                       # Clock period in ticks (Tick)
system.cpu0.mmu.dtb.rdAccesses              286937163                       # TLB accesses on read requests (Count)
system.cpu0.mmu.dtb.wrAccesses              297771378                       # TLB accesses on write requests (Count)
system.cpu0.mmu.dtb.rdMisses                    28647                       # TLB misses on read requests (Count)
system.cpu0.mmu.dtb.wrMisses                    22900                       # TLB misses on write requests (Count)
system.cpu0.mmu.dtb.walker.power_state.pwrStateResidencyTicks::UNDEFINED 2736780749500                       # Cumulative time (in ticks) in various power states (Tick)
system.cpu0.mmu.itb.rdAccesses                      0                       # TLB accesses on read requests (Count)
system.cpu0.mmu.itb.wrAccesses             1923097909                       # TLB accesses on write requests (Count)
system.cpu0.mmu.itb.rdMisses                        0                       # TLB misses on read requests (Count)
system.cpu0.mmu.itb.wrMisses                     4536                       # TLB misses on write requests (Count)
system.cpu0.mmu.itb.walker.power_state.pwrStateResidencyTicks::UNDEFINED 2736780749500                       # Cumulative time (in ticks) in various power states (Tick)
system.cpu0.power_state.numTransitions              8                       # Number of power state transitions (Count)
system.cpu0.power_state.ticksClkGated::samples            4                       # Distribution of time spent in the clock gated state (Tick)
system.cpu0.power_state.ticksClkGated::mean   1061109875                       # Distribution of time spent in the clock gated state (Tick)
system.cpu0.power_state.ticksClkGated::stdev 2016341596.455669                       # Distribution of time spent in the clock gated state (Tick)
system.cpu0.power_state.ticksClkGated::1000-5e+10            4    100.00%    100.00% # Distribution of time spent in the clock gated state (Tick)
system.cpu0.power_state.ticksClkGated::min_value     36588000                       # Distribution of time spent in the clock gated state (Tick)
system.cpu0.power_state.ticksClkGated::max_value   4085525500                       # Distribution of time spent in the clock gated state (Tick)
system.cpu0.power_state.ticksClkGated::total            4                       # Distribution of time spent in the clock gated state (Tick)
system.cpu0.power_state.pwrStateResidencyTicks::ON 2732536310000                       # Cumulative time (in ticks) in various power states (Tick)
system.cpu0.power_state.pwrStateResidencyTicks::CLK_GATED   4244439500                       # Cumulative time (in ticks) in various power states (Tick)
system.cpu0.thread_0.numInsts                       0                       # Number of Instructions committed (Count)
system.cpu0.thread_0.numOps                         0                       # Number of Ops committed (Count)
system.cpu0.thread_0.numMemRefs                     0                       # Number of Memory References (Count)
system.cpu0.workload.numSyscalls              3442989                       # Number of system calls (Count)
system.cpu0.workload.drivers0.device.dispatcher.numKernelLaunched           34                       # number of kernel launched (Unspecified)
system.cpu0.workload.drivers0.device.dispatcher.cyclesWaitingForDispatch        98157                       # number of cycles with outstanding wavefronts that are waiting to be dispatched (Unspecified)
system.cpu0.workload.drivers0.device.hsapp.power_state.pwrStateResidencyTicks::UNDEFINED 2736780749500                       # Cumulative time (in ticks) in various power states (Tick)
system.cpu0.workload.drivers0.device.hsapp.walker.power_state.pwrStateResidencyTicks::UNDEFINED 2736780749500                       # Cumulative time (in ticks) in various power states (Tick)
system.cpu0.workload.drivers0.device.power_state.pwrStateResidencyTicks::UNDEFINED 2736780749500                       # Cumulative time (in ticks) in various power states (Tick)
system.cpu0.workload.drivers0.device.walker.power_state.pwrStateResidencyTicks::UNDEFINED 2736780749500                       # Cumulative time (in ticks) in various power states (Tick)
system.cpu1.numCycles                      3244961702                       # Number of cpu cycles simulated (Cycle)
system.cpu1.cpi                           9393.896072                       # CPI: cycles per instruction (core level) ((Cycle/Count))
system.cpu1.ipc                              0.000106                       # IPC: instructions per cycle (core level) ((Count/Cycle))
system.cpu1.numWorkItemsStarted                     0                       # Number of work items this cpu started (Count)
system.cpu1.numWorkItemsCompleted                   0                       # Number of work items this cpu completed (Count)
system.cpu1.clk_domain.clock                      500                       # Clock period in ticks (Tick)
system.cpu1.clk_domain.voltage_domain.voltage            1                       # Voltage in Volts (Volt)
system.cpu1.commitStats0.numInsts              345433                       # Number of instructions committed (thread level) (Count)
system.cpu1.commitStats0.numOps                643321                       # Number of ops (including micro ops) committed (thread level) (Count)
system.cpu1.commitStats0.numInstsNotNOP             0                       # Number of instructions committed excluding NOPs or prefetches (Count)
system.cpu1.commitStats0.numOpsNotNOP               0                       # Number of Ops (including micro ops) Simulated (Count)
system.cpu1.commitStats0.cpi              9393.896072                       # CPI: cycles per instruction (thread level) ((Cycle/Count))
system.cpu1.commitStats0.ipc                 0.000106                       # IPC: instructions per cycle (thread level) ((Count/Cycle))
system.cpu1.commitStats0.numMemRefs                 0                       # Number of memory references committed (Count)
system.cpu1.commitStats0.numFpInsts             20246                       # Number of float instructions (Count)
system.cpu1.commitStats0.numIntInsts           619917                       # Number of integer instructions (Count)
system.cpu1.commitStats0.numLoadInsts          143870                       # Number of load instructions (Count)
system.cpu1.commitStats0.numStoreInsts          14736                       # Number of store instructions (Count)
system.cpu1.commitStats0.numVecInsts                0                       # Number of vector instructions (Count)
system.cpu1.commitStats0.committedInstType::No_OpClass        10527      1.64%      1.64% # Class of committed instruction. (Count)
system.cpu1.commitStats0.committedInstType::IntAlu       460066     71.51%     73.15% # Class of committed instruction. (Count)
system.cpu1.commitStats0.committedInstType::IntMult            3      0.00%     73.15% # Class of committed instruction. (Count)
system.cpu1.commitStats0.committedInstType::IntDiv           75      0.01%     73.16% # Class of committed instruction. (Count)
system.cpu1.commitStats0.committedInstType::FloatAdd         2864      0.45%     73.61% # Class of committed instruction. (Count)
system.cpu1.commitStats0.committedInstType::FloatCmp            0      0.00%     73.61% # Class of committed instruction. (Count)
system.cpu1.commitStats0.committedInstType::FloatCvt           48      0.01%     73.62% # Class of committed instruction. (Count)
system.cpu1.commitStats0.committedInstType::FloatMult            0      0.00%     73.62% # Class of committed instruction. (Count)
system.cpu1.commitStats0.committedInstType::FloatMultAcc            0      0.00%     73.62% # Class of committed instruction. (Count)
system.cpu1.commitStats0.committedInstType::FloatDiv            0      0.00%     73.62% # Class of committed instruction. (Count)
system.cpu1.commitStats0.committedInstType::FloatMisc            0      0.00%     73.62% # Class of committed instruction. (Count)
system.cpu1.commitStats0.committedInstType::FloatSqrt            0      0.00%     73.62% # Class of committed instruction. (Count)
system.cpu1.commitStats0.committedInstType::SimdAdd           20      0.00%     73.62% # Class of committed instruction. (Count)
system.cpu1.commitStats0.committedInstType::SimdAddAcc            0      0.00%     73.62% # Class of committed instruction. (Count)
system.cpu1.commitStats0.committedInstType::SimdAlu         2756      0.43%     74.05% # Class of committed instruction. (Count)
system.cpu1.commitStats0.committedInstType::SimdCmp            0      0.00%     74.05% # Class of committed instruction. (Count)
system.cpu1.commitStats0.committedInstType::SimdCvt           40      0.01%     74.05% # Class of committed instruction. (Count)
system.cpu1.commitStats0.committedInstType::SimdMisc         1543      0.24%     74.29% # Class of committed instruction. (Count)
system.cpu1.commitStats0.committedInstType::SimdMult            0      0.00%     74.29% # Class of committed instruction. (Count)
system.cpu1.commitStats0.committedInstType::SimdMultAcc            0      0.00%     74.29% # Class of committed instruction. (Count)
system.cpu1.commitStats0.committedInstType::SimdMatMultAcc            0      0.00%     74.29% # Class of committed instruction. (Count)
system.cpu1.commitStats0.committedInstType::SimdShift           21      0.00%     74.30% # Class of committed instruction. (Count)
system.cpu1.commitStats0.committedInstType::SimdShiftAcc            0      0.00%     74.30% # Class of committed instruction. (Count)
system.cpu1.commitStats0.committedInstType::SimdDiv            0      0.00%     74.30% # Class of committed instruction. (Count)
system.cpu1.commitStats0.committedInstType::SimdSqrt            0      0.00%     74.30% # Class of committed instruction. (Count)
system.cpu1.commitStats0.committedInstType::SimdFloatAdd         1350      0.21%     74.51% # Class of committed instruction. (Count)
system.cpu1.commitStats0.committedInstType::SimdFloatAlu            0      0.00%     74.51% # Class of committed instruction. (Count)
system.cpu1.commitStats0.committedInstType::SimdFloatCmp            0      0.00%     74.51% # Class of committed instruction. (Count)
system.cpu1.commitStats0.committedInstType::SimdFloatCvt         4044      0.63%     75.13% # Class of committed instruction. (Count)
system.cpu1.commitStats0.committedInstType::SimdFloatDiv            7      0.00%     75.14% # Class of committed instruction. (Count)
system.cpu1.commitStats0.committedInstType::SimdFloatMisc            0      0.00%     75.14% # Class of committed instruction. (Count)
system.cpu1.commitStats0.committedInstType::SimdFloatMult         1351      0.21%     75.35% # Class of committed instruction. (Count)
system.cpu1.commitStats0.committedInstType::SimdFloatMultAcc            0      0.00%     75.35% # Class of committed instruction. (Count)
system.cpu1.commitStats0.committedInstType::SimdFloatMatMultAcc            0      0.00%     75.35% # Class of committed instruction. (Count)
system.cpu1.commitStats0.committedInstType::SimdFloatSqrt            0      0.00%     75.35% # Class of committed instruction. (Count)
system.cpu1.commitStats0.committedInstType::SimdReduceAdd            0      0.00%     75.35% # Class of committed instruction. (Count)
system.cpu1.commitStats0.committedInstType::SimdReduceAlu            0      0.00%     75.35% # Class of committed instruction. (Count)
system.cpu1.commitStats0.committedInstType::SimdReduceCmp            0      0.00%     75.35% # Class of committed instruction. (Count)
system.cpu1.commitStats0.committedInstType::SimdFloatReduceAdd            0      0.00%     75.35% # Class of committed instruction. (Count)
system.cpu1.commitStats0.committedInstType::SimdFloatReduceCmp            0      0.00%     75.35% # Class of committed instruction. (Count)
system.cpu1.commitStats0.committedInstType::SimdAes            0      0.00%     75.35% # Class of committed instruction. (Count)
system.cpu1.commitStats0.committedInstType::SimdAesMix            0      0.00%     75.35% # Class of committed instruction. (Count)
system.cpu1.commitStats0.committedInstType::SimdSha1Hash            0      0.00%     75.35% # Class of committed instruction. (Count)
system.cpu1.commitStats0.committedInstType::SimdSha1Hash2            0      0.00%     75.35% # Class of committed instruction. (Count)
system.cpu1.commitStats0.committedInstType::SimdSha256Hash            0      0.00%     75.35% # Class of committed instruction. (Count)
system.cpu1.commitStats0.committedInstType::SimdSha256Hash2            0      0.00%     75.35% # Class of committed instruction. (Count)
system.cpu1.commitStats0.committedInstType::SimdShaSigma2            0      0.00%     75.35% # Class of committed instruction. (Count)
system.cpu1.commitStats0.committedInstType::SimdShaSigma3            0      0.00%     75.35% # Class of committed instruction. (Count)
system.cpu1.commitStats0.committedInstType::SimdPredAlu            0      0.00%     75.35% # Class of committed instruction. (Count)
system.cpu1.commitStats0.committedInstType::Matrix            0      0.00%     75.35% # Class of committed instruction. (Count)
system.cpu1.commitStats0.committedInstType::MatrixMov            0      0.00%     75.35% # Class of committed instruction. (Count)
system.cpu1.commitStats0.committedInstType::MatrixOP            0      0.00%     75.35% # Class of committed instruction. (Count)
system.cpu1.commitStats0.committedInstType::MemRead       138319     21.50%     96.85% # Class of committed instruction. (Count)
system.cpu1.commitStats0.committedInstType::MemWrite        14239      2.21%     99.06% # Class of committed instruction. (Count)
system.cpu1.commitStats0.committedInstType::FloatMemRead         5551      0.86%     99.92% # Class of committed instruction. (Count)
system.cpu1.commitStats0.committedInstType::FloatMemWrite          497      0.08%    100.00% # Class of committed instruction. (Count)
system.cpu1.commitStats0.committedInstType::IprAccess            0      0.00%    100.00% # Class of committed instruction. (Count)
system.cpu1.commitStats0.committedInstType::InstPrefetch            0      0.00%    100.00% # Class of committed instruction. (Count)
system.cpu1.commitStats0.committedInstType::VectorUnitStrideLoad            0      0.00%    100.00% # Class of committed instruction. (Count)
system.cpu1.commitStats0.committedInstType::VectorUnitStrideStore            0      0.00%    100.00% # Class of committed instruction. (Count)
system.cpu1.commitStats0.committedInstType::VectorUnitStrideMaskLoad            0      0.00%    100.00% # Class of committed instruction. (Count)
system.cpu1.commitStats0.committedInstType::VectorUnitStrideMaskStore            0      0.00%    100.00% # Class of committed instruction. (Count)
system.cpu1.commitStats0.committedInstType::VectorStridedLoad            0      0.00%    100.00% # Class of committed instruction. (Count)
system.cpu1.commitStats0.committedInstType::VectorStridedStore            0      0.00%    100.00% # Class of committed instruction. (Count)
system.cpu1.commitStats0.committedInstType::VectorIndexedLoad            0      0.00%    100.00% # Class of committed instruction. (Count)
system.cpu1.commitStats0.committedInstType::VectorIndexedStore            0      0.00%    100.00% # Class of committed instruction. (Count)
system.cpu1.commitStats0.committedInstType::VectorUnitStrideFaultOnlyFirstLoad            0      0.00%    100.00% # Class of committed instruction. (Count)
system.cpu1.commitStats0.committedInstType::VectorWholeRegisterLoad            0      0.00%    100.00% # Class of committed instruction. (Count)
system.cpu1.commitStats0.committedInstType::VectorWholeRegisterStore            0      0.00%    100.00% # Class of committed instruction. (Count)
system.cpu1.commitStats0.committedInstType::VectorIntegerArith            0      0.00%    100.00% # Class of committed instruction. (Count)
system.cpu1.commitStats0.committedInstType::VectorFloatArith            0      0.00%    100.00% # Class of committed instruction. (Count)
system.cpu1.commitStats0.committedInstType::VectorFloatConvert            0      0.00%    100.00% # Class of committed instruction. (Count)
system.cpu1.commitStats0.committedInstType::VectorIntegerReduce            0      0.00%    100.00% # Class of committed instruction. (Count)
system.cpu1.commitStats0.committedInstType::VectorFloatReduce            0      0.00%    100.00% # Class of committed instruction. (Count)
system.cpu1.commitStats0.committedInstType::VectorMisc            0      0.00%    100.00% # Class of committed instruction. (Count)
system.cpu1.commitStats0.committedInstType::VectorIntegerExtension            0      0.00%    100.00% # Class of committed instruction. (Count)
system.cpu1.commitStats0.committedInstType::VectorConfig            0      0.00%    100.00% # Class of committed instruction. (Count)
system.cpu1.commitStats0.committedInstType::total       643321                       # Class of committed instruction. (Count)
system.cpu1.commitStats0.committedControl::IsControl       110126                       # Class of control type instructions committed (Count)
system.cpu1.commitStats0.committedControl::IsDirectControl        92072                       # Class of control type instructions committed (Count)
system.cpu1.commitStats0.committedControl::IsIndirectControl        18051                       # Class of control type instructions committed (Count)
system.cpu1.commitStats0.committedControl::IsCondControl        89336                       # Class of control type instructions committed (Count)
system.cpu1.commitStats0.committedControl::IsUncondControl        20787                       # Class of control type instructions committed (Count)
system.cpu1.commitStats0.committedControl::IsCall         9058                       # Class of control type instructions committed (Count)
system.cpu1.commitStats0.committedControl::IsReturn         9050                       # Class of control type instructions committed (Count)
system.cpu1.exec_context.thread_0.numMatAluAccesses            0                       # Number of matrix alu accesses (Count)
system.cpu1.exec_context.thread_0.numCallsReturns        18108                       # Number of times a function call or return occured (Count)
system.cpu1.exec_context.thread_0.numMatInsts            0                       # Number of matrix instructions (Count)
system.cpu1.exec_context.thread_0.numIdleCycles 3244167454.450771                       # Number of idle cycles (Cycle)
system.cpu1.exec_context.thread_0.numBusyCycles 794247.549229                       # Number of busy cycles (Cycle)
system.cpu1.exec_context.thread_0.notIdleFraction     0.000245                       # Percentage of non-idle cycles (Ratio)
system.cpu1.exec_context.thread_0.idleFraction     0.999755                       # Percentage of idle cycles (Ratio)
system.cpu1.executeStats0.numInsts                  0                       # Number of executed instructions (Count)
system.cpu1.executeStats0.numNop                    0                       # Number of nop insts executed (Count)
system.cpu1.executeStats0.numBranches               0                       # Number of branches executed (Count)
system.cpu1.executeStats0.numLoadInsts              0                       # Number of load instructions executed (Count)
system.cpu1.executeStats0.numStoreInsts        158606                       # Number of stores executed (Count)
system.cpu1.executeStats0.instRate                  0                       # Inst execution rate ((Count/Cycle))
system.cpu1.executeStats0.numFpAluAccesses        20246                       # Number of float alu accesses (Count)
system.cpu1.executeStats0.numFpRegReads         24366                       # Number of times the floating registers were read (Count)
system.cpu1.executeStats0.numFpRegWrites        16992                       # Number of times the floating registers were written (Count)
system.cpu1.executeStats0.numIntAluAccesses       619917                       # Number of integer alu accesses (Count)
system.cpu1.executeStats0.numIntRegReads       675366                       # Number of times the integer registers were read (Count)
system.cpu1.executeStats0.numIntRegWrites       403033                       # Number of times the integer registers were written (Count)
system.cpu1.executeStats0.numMemRefs           158606                       # Number of memory refs (Count)
system.cpu1.executeStats0.numMiscRegReads       373911                       # Number of times the Misc registers were read (Count)
system.cpu1.executeStats0.numMiscRegWrites           27                       # Number of times the Misc registers were written (Count)
system.cpu1.executeStats0.numVecAluAccesses            0                       # Number of vector alu accesses (Count)
system.cpu1.executeStats0.numDiscardedOps            0                       # Number of ops (including micro ops) which were discarded before commit (Count)
system.cpu1.fetchStats0.numInsts               345433                       # Number of instructions fetched (thread level) (Count)
system.cpu1.fetchStats0.numOps                 643321                       # Number of ops (including micro ops) fetched (thread level) (Count)
system.cpu1.fetchStats0.fetchRate            0.000106                       # Number of inst fetches per cycle ((Count/Cycle))
system.cpu1.fetchStats0.numBranches            110126                       # Number of branches fetched (Count)
system.cpu1.fetchStats0.branchRate           0.000034                       # Number of branch fetches per cycle (Ratio)
system.cpu1.fetchStats0.numFetchSuspends            0                       # Number of times Execute suspended instruction fetching (Count)
system.cpu1.interrupts.clk_domain.clock          8000                       # Clock period in ticks (Tick)
system.cpu1.mmu.dtb.rdAccesses                 143870                       # TLB accesses on read requests (Count)
system.cpu1.mmu.dtb.wrAccesses                  14736                       # TLB accesses on write requests (Count)
system.cpu1.mmu.dtb.rdMisses                      153                       # TLB misses on read requests (Count)
system.cpu1.mmu.dtb.wrMisses                        4                       # TLB misses on write requests (Count)
system.cpu1.mmu.dtb.walker.power_state.pwrStateResidencyTicks::UNDEFINED 2736780749500                       # Cumulative time (in ticks) in various power states (Tick)
system.cpu1.mmu.itb.rdAccesses                      0                       # TLB accesses on read requests (Count)
system.cpu1.mmu.itb.wrAccesses                 456294                       # TLB accesses on write requests (Count)
system.cpu1.mmu.itb.rdMisses                        0                       # TLB misses on read requests (Count)
system.cpu1.mmu.itb.wrMisses                      129                       # TLB misses on write requests (Count)
system.cpu1.mmu.itb.walker.power_state.pwrStateResidencyTicks::UNDEFINED 2736780749500                       # Cumulative time (in ticks) in various power states (Tick)
system.cpu1.power_state.numTransitions              3                       # Number of power state transitions (Count)
system.cpu1.power_state.ticksClkGated::samples            2                       # Distribution of time spent in the clock gated state (Tick)
system.cpu1.power_state.ticksClkGated::mean 558533563500                       # Distribution of time spent in the clock gated state (Tick)
system.cpu1.power_state.ticksClkGated::stdev 785972288467.389038                       # Distribution of time spent in the clock gated state (Tick)
system.cpu1.power_state.ticksClkGated::1000-5e+10            1     50.00%     50.00% # Distribution of time spent in the clock gated state (Tick)
system.cpu1.power_state.ticksClkGated::overflows            1     50.00%    100.00% # Distribution of time spent in the clock gated state (Tick)
system.cpu1.power_state.ticksClkGated::min_value   2767228500                       # Distribution of time spent in the clock gated state (Tick)
system.cpu1.power_state.ticksClkGated::max_value 1114299898500                       # Distribution of time spent in the clock gated state (Tick)
system.cpu1.power_state.ticksClkGated::total            2                       # Distribution of time spent in the clock gated state (Tick)
system.cpu1.power_state.pwrStateResidencyTicks::ON 1619713622500                       # Cumulative time (in ticks) in various power states (Tick)
system.cpu1.power_state.pwrStateResidencyTicks::CLK_GATED 1117067127000                       # Cumulative time (in ticks) in various power states (Tick)
system.cpu1.thread_0.numInsts                       0                       # Number of Instructions committed (Count)
system.cpu1.thread_0.numOps                         0                       # Number of Ops committed (Count)
system.cpu1.thread_0.numMemRefs                     0                       # Number of Memory References (Count)
system.cpu2.numCycles                      3402625367                       # Number of cpu cycles simulated (Cycle)
system.cpu2.cpi                            852.980287                       # CPI: cycles per instruction (core level) ((Cycle/Count))
system.cpu2.ipc                              0.001172                       # IPC: instructions per cycle (core level) ((Count/Cycle))
system.cpu2.numWorkItemsStarted                     0                       # Number of work items this cpu started (Count)
system.cpu2.numWorkItemsCompleted                   0                       # Number of work items this cpu completed (Count)
system.cpu2.clk_domain.clock                      500                       # Clock period in ticks (Tick)
system.cpu2.clk_domain.voltage_domain.voltage            1                       # Voltage in Volts (Volt)
system.cpu2.commitStats0.numInsts             3989102                       # Number of instructions committed (thread level) (Count)
system.cpu2.commitStats0.numOps               8917518                       # Number of ops (including micro ops) committed (thread level) (Count)
system.cpu2.commitStats0.numInstsNotNOP             0                       # Number of instructions committed excluding NOPs or prefetches (Count)
system.cpu2.commitStats0.numOpsNotNOP               0                       # Number of Ops (including micro ops) Simulated (Count)
system.cpu2.commitStats0.cpi               852.980287                       # CPI: cycles per instruction (thread level) ((Cycle/Count))
system.cpu2.commitStats0.ipc                 0.001172                       # IPC: instructions per cycle (thread level) ((Count/Cycle))
system.cpu2.commitStats0.numMemRefs                 0                       # Number of memory references committed (Count)
system.cpu2.commitStats0.numFpInsts           2714885                       # Number of float instructions (Count)
system.cpu2.commitStats0.numIntInsts          8113846                       # Number of integer instructions (Count)
system.cpu2.commitStats0.numLoadInsts         1994583                       # Number of load instructions (Count)
system.cpu2.commitStats0.numStoreInsts        2174771                       # Number of store instructions (Count)
system.cpu2.commitStats0.numVecInsts                0                       # Number of vector instructions (Count)
system.cpu2.commitStats0.committedInstType::No_OpClass       678814      7.61%      7.61% # Class of committed instruction. (Count)
system.cpu2.commitStats0.committedInstType::IntAlu      3970280     44.52%     52.13% # Class of committed instruction. (Count)
system.cpu2.commitStats0.committedInstType::IntMult         1404      0.02%     52.15% # Class of committed instruction. (Count)
system.cpu2.commitStats0.committedInstType::IntDiv         2201      0.02%     52.17% # Class of committed instruction. (Count)
system.cpu2.commitStats0.committedInstType::FloatAdd        16698      0.19%     52.36% # Class of committed instruction. (Count)
system.cpu2.commitStats0.committedInstType::FloatCmp            3      0.00%     52.36% # Class of committed instruction. (Count)
system.cpu2.commitStats0.committedInstType::FloatCvt          530      0.01%     52.37% # Class of committed instruction. (Count)
system.cpu2.commitStats0.committedInstType::FloatMult            1      0.00%     52.37% # Class of committed instruction. (Count)
system.cpu2.commitStats0.committedInstType::FloatMultAcc            0      0.00%     52.37% # Class of committed instruction. (Count)
system.cpu2.commitStats0.committedInstType::FloatDiv            1      0.00%     52.37% # Class of committed instruction. (Count)
system.cpu2.commitStats0.committedInstType::FloatMisc            0      0.00%     52.37% # Class of committed instruction. (Count)
system.cpu2.commitStats0.committedInstType::FloatSqrt            0      0.00%     52.37% # Class of committed instruction. (Count)
system.cpu2.commitStats0.committedInstType::SimdAdd          410      0.00%     52.37% # Class of committed instruction. (Count)
system.cpu2.commitStats0.committedInstType::SimdAddAcc            0      0.00%     52.37% # Class of committed instruction. (Count)
system.cpu2.commitStats0.committedInstType::SimdAlu        24568      0.28%     52.65% # Class of committed instruction. (Count)
system.cpu2.commitStats0.committedInstType::SimdCmp           12      0.00%     52.65% # Class of committed instruction. (Count)
system.cpu2.commitStats0.committedInstType::SimdCvt          558      0.01%     52.65% # Class of committed instruction. (Count)
system.cpu2.commitStats0.committedInstType::SimdMisc         9775      0.11%     52.76% # Class of committed instruction. (Count)
system.cpu2.commitStats0.committedInstType::SimdMult            0      0.00%     52.76% # Class of committed instruction. (Count)
system.cpu2.commitStats0.committedInstType::SimdMultAcc            0      0.00%     52.76% # Class of committed instruction. (Count)
system.cpu2.commitStats0.committedInstType::SimdMatMultAcc            0      0.00%     52.76% # Class of committed instruction. (Count)
system.cpu2.commitStats0.committedInstType::SimdShift          283      0.00%     52.77% # Class of committed instruction. (Count)
system.cpu2.commitStats0.committedInstType::SimdShiftAcc            0      0.00%     52.77% # Class of committed instruction. (Count)
system.cpu2.commitStats0.committedInstType::SimdDiv            0      0.00%     52.77% # Class of committed instruction. (Count)
system.cpu2.commitStats0.committedInstType::SimdSqrt            0      0.00%     52.77% # Class of committed instruction. (Count)
system.cpu2.commitStats0.committedInstType::SimdFloatAdd         8688      0.10%     52.86% # Class of committed instruction. (Count)
system.cpu2.commitStats0.committedInstType::SimdFloatAlu            0      0.00%     52.86% # Class of committed instruction. (Count)
system.cpu2.commitStats0.committedInstType::SimdFloatCmp            0      0.00%     52.86% # Class of committed instruction. (Count)
system.cpu2.commitStats0.committedInstType::SimdFloatCvt        25239      0.28%     53.15% # Class of committed instruction. (Count)
system.cpu2.commitStats0.committedInstType::SimdFloatDiv            7      0.00%     53.15% # Class of committed instruction. (Count)
system.cpu2.commitStats0.committedInstType::SimdFloatMisc            0      0.00%     53.15% # Class of committed instruction. (Count)
system.cpu2.commitStats0.committedInstType::SimdFloatMult         8692      0.10%     53.25% # Class of committed instruction. (Count)
system.cpu2.commitStats0.committedInstType::SimdFloatMultAcc            0      0.00%     53.25% # Class of committed instruction. (Count)
system.cpu2.commitStats0.committedInstType::SimdFloatMatMultAcc            0      0.00%     53.25% # Class of committed instruction. (Count)
system.cpu2.commitStats0.committedInstType::SimdFloatSqrt            0      0.00%     53.25% # Class of committed instruction. (Count)
system.cpu2.commitStats0.committedInstType::SimdReduceAdd            0      0.00%     53.25% # Class of committed instruction. (Count)
system.cpu2.commitStats0.committedInstType::SimdReduceAlu            0      0.00%     53.25% # Class of committed instruction. (Count)
system.cpu2.commitStats0.committedInstType::SimdReduceCmp            0      0.00%     53.25% # Class of committed instruction. (Count)
system.cpu2.commitStats0.committedInstType::SimdFloatReduceAdd            0      0.00%     53.25% # Class of committed instruction. (Count)
system.cpu2.commitStats0.committedInstType::SimdFloatReduceCmp            0      0.00%     53.25% # Class of committed instruction. (Count)
system.cpu2.commitStats0.committedInstType::SimdAes            0      0.00%     53.25% # Class of committed instruction. (Count)
system.cpu2.commitStats0.committedInstType::SimdAesMix            0      0.00%     53.25% # Class of committed instruction. (Count)
system.cpu2.commitStats0.committedInstType::SimdSha1Hash            0      0.00%     53.25% # Class of committed instruction. (Count)
system.cpu2.commitStats0.committedInstType::SimdSha1Hash2            0      0.00%     53.25% # Class of committed instruction. (Count)
system.cpu2.commitStats0.committedInstType::SimdSha256Hash            0      0.00%     53.25% # Class of committed instruction. (Count)
system.cpu2.commitStats0.committedInstType::SimdSha256Hash2            0      0.00%     53.25% # Class of committed instruction. (Count)
system.cpu2.commitStats0.committedInstType::SimdShaSigma2            0      0.00%     53.25% # Class of committed instruction. (Count)
system.cpu2.commitStats0.committedInstType::SimdShaSigma3            0      0.00%     53.25% # Class of committed instruction. (Count)
system.cpu2.commitStats0.committedInstType::SimdPredAlu            0      0.00%     53.25% # Class of committed instruction. (Count)
system.cpu2.commitStats0.committedInstType::Matrix            0      0.00%     53.25% # Class of committed instruction. (Count)
system.cpu2.commitStats0.committedInstType::MatrixMov            0      0.00%     53.25% # Class of committed instruction. (Count)
system.cpu2.commitStats0.committedInstType::MatrixOP            0      0.00%     53.25% # Class of committed instruction. (Count)
system.cpu2.commitStats0.committedInstType::MemRead       677102      7.59%     60.84% # Class of committed instruction. (Count)
system.cpu2.commitStats0.committedInstType::MemWrite       873497      9.80%     70.63% # Class of committed instruction. (Count)
system.cpu2.commitStats0.committedInstType::FloatMemRead      1317481     14.77%     85.41% # Class of committed instruction. (Count)
system.cpu2.commitStats0.committedInstType::FloatMemWrite      1301274     14.59%    100.00% # Class of committed instruction. (Count)
system.cpu2.commitStats0.committedInstType::IprAccess            0      0.00%    100.00% # Class of committed instruction. (Count)
system.cpu2.commitStats0.committedInstType::InstPrefetch            0      0.00%    100.00% # Class of committed instruction. (Count)
system.cpu2.commitStats0.committedInstType::VectorUnitStrideLoad            0      0.00%    100.00% # Class of committed instruction. (Count)
system.cpu2.commitStats0.committedInstType::VectorUnitStrideStore            0      0.00%    100.00% # Class of committed instruction. (Count)
system.cpu2.commitStats0.committedInstType::VectorUnitStrideMaskLoad            0      0.00%    100.00% # Class of committed instruction. (Count)
system.cpu2.commitStats0.committedInstType::VectorUnitStrideMaskStore            0      0.00%    100.00% # Class of committed instruction. (Count)
system.cpu2.commitStats0.committedInstType::VectorStridedLoad            0      0.00%    100.00% # Class of committed instruction. (Count)
system.cpu2.commitStats0.committedInstType::VectorStridedStore            0      0.00%    100.00% # Class of committed instruction. (Count)
system.cpu2.commitStats0.committedInstType::VectorIndexedLoad            0      0.00%    100.00% # Class of committed instruction. (Count)
system.cpu2.commitStats0.committedInstType::VectorIndexedStore            0      0.00%    100.00% # Class of committed instruction. (Count)
system.cpu2.commitStats0.committedInstType::VectorUnitStrideFaultOnlyFirstLoad            0      0.00%    100.00% # Class of committed instruction. (Count)
system.cpu2.commitStats0.committedInstType::VectorWholeRegisterLoad            0      0.00%    100.00% # Class of committed instruction. (Count)
system.cpu2.commitStats0.committedInstType::VectorWholeRegisterStore            0      0.00%    100.00% # Class of committed instruction. (Count)
system.cpu2.commitStats0.committedInstType::VectorIntegerArith            0      0.00%    100.00% # Class of committed instruction. (Count)
system.cpu2.commitStats0.committedInstType::VectorFloatArith            0      0.00%    100.00% # Class of committed instruction. (Count)
system.cpu2.commitStats0.committedInstType::VectorFloatConvert            0      0.00%    100.00% # Class of committed instruction. (Count)
system.cpu2.commitStats0.committedInstType::VectorIntegerReduce            0      0.00%    100.00% # Class of committed instruction. (Count)
system.cpu2.commitStats0.committedInstType::VectorFloatReduce            0      0.00%    100.00% # Class of committed instruction. (Count)
system.cpu2.commitStats0.committedInstType::VectorMisc            0      0.00%    100.00% # Class of committed instruction. (Count)
system.cpu2.commitStats0.committedInstType::VectorIntegerExtension            0      0.00%    100.00% # Class of committed instruction. (Count)
system.cpu2.commitStats0.committedInstType::VectorConfig            0      0.00%    100.00% # Class of committed instruction. (Count)
system.cpu2.commitStats0.committedInstType::total      8917518                       # Class of committed instruction. (Count)
system.cpu2.commitStats0.committedControl::IsControl       494377                       # Class of control type instructions committed (Count)
system.cpu2.commitStats0.committedControl::IsDirectControl       450801                       # Class of control type instructions committed (Count)
system.cpu2.commitStats0.committedControl::IsIndirectControl        43533                       # Class of control type instructions committed (Count)
system.cpu2.commitStats0.committedControl::IsCondControl       398729                       # Class of control type instructions committed (Count)
system.cpu2.commitStats0.committedControl::IsUncondControl        95605                       # Class of control type instructions committed (Count)
system.cpu2.commitStats0.committedControl::IsCall        28119                       # Class of control type instructions committed (Count)
system.cpu2.commitStats0.committedControl::IsReturn        28109                       # Class of control type instructions committed (Count)
system.cpu2.exec_context.thread_0.numMatAluAccesses            0                       # Number of matrix alu accesses (Count)
system.cpu2.exec_context.thread_0.numCallsReturns        56228                       # Number of times a function call or return occured (Count)
system.cpu2.exec_context.thread_0.numMatInsts            0                       # Number of matrix instructions (Count)
system.cpu2.exec_context.thread_0.numIdleCycles 3313035763.668465                       # Number of idle cycles (Cycle)
system.cpu2.exec_context.thread_0.numBusyCycles 89589603.331535                       # Number of busy cycles (Cycle)
system.cpu2.exec_context.thread_0.notIdleFraction     0.026330                       # Percentage of non-idle cycles (Ratio)
system.cpu2.exec_context.thread_0.idleFraction     0.973670                       # Percentage of idle cycles (Ratio)
system.cpu2.executeStats0.numInsts                  0                       # Number of executed instructions (Count)
system.cpu2.executeStats0.numNop                    0                       # Number of nop insts executed (Count)
system.cpu2.executeStats0.numBranches               0                       # Number of branches executed (Count)
system.cpu2.executeStats0.numLoadInsts              0                       # Number of load instructions executed (Count)
system.cpu2.executeStats0.numStoreInsts       4169354                       # Number of stores executed (Count)
system.cpu2.executeStats0.instRate                  0                       # Inst execution rate ((Count/Cycle))
system.cpu2.executeStats0.numFpAluAccesses      2714885                       # Number of float alu accesses (Count)
system.cpu2.executeStats0.numFpRegReads       1468330                       # Number of times the floating registers were read (Count)
system.cpu2.executeStats0.numFpRegWrites      1396230                       # Number of times the floating registers were written (Count)
system.cpu2.executeStats0.numIntAluAccesses      8113846                       # Number of integer alu accesses (Count)
system.cpu2.executeStats0.numIntRegReads      8621116                       # Number of times the integer registers were read (Count)
system.cpu2.executeStats0.numIntRegWrites      3429048                       # Number of times the integer registers were written (Count)
system.cpu2.executeStats0.numMemRefs          4169354                       # Number of memory refs (Count)
system.cpu2.executeStats0.numMiscRegReads      5195139                       # Number of times the Misc registers were read (Count)
system.cpu2.executeStats0.numMiscRegWrites          329                       # Number of times the Misc registers were written (Count)
system.cpu2.executeStats0.numVecAluAccesses            0                       # Number of vector alu accesses (Count)
system.cpu2.executeStats0.numDiscardedOps            0                       # Number of ops (including micro ops) which were discarded before commit (Count)
system.cpu2.fetchStats0.numInsts              3989102                       # Number of instructions fetched (thread level) (Count)
system.cpu2.fetchStats0.numOps                8917518                       # Number of ops (including micro ops) fetched (thread level) (Count)
system.cpu2.fetchStats0.fetchRate            0.001172                       # Number of inst fetches per cycle ((Count/Cycle))
system.cpu2.fetchStats0.numBranches            494377                       # Number of branches fetched (Count)
system.cpu2.fetchStats0.branchRate           0.000145                       # Number of branch fetches per cycle (Ratio)
system.cpu2.fetchStats0.numFetchSuspends            0                       # Number of times Execute suspended instruction fetching (Count)
system.cpu2.interrupts.clk_domain.clock          8000                       # Clock period in ticks (Tick)
system.cpu2.mmu.dtb.rdAccesses                1994615                       # TLB accesses on read requests (Count)
system.cpu2.mmu.dtb.wrAccesses                2175036                       # TLB accesses on write requests (Count)
system.cpu2.mmu.dtb.rdMisses                     3608                       # TLB misses on read requests (Count)
system.cpu2.mmu.dtb.wrMisses                     3079                       # TLB misses on write requests (Count)
system.cpu2.mmu.dtb.walker.power_state.pwrStateResidencyTicks::UNDEFINED 2736780749500                       # Cumulative time (in ticks) in various power states (Tick)
system.cpu2.mmu.itb.rdAccesses                      0                       # TLB accesses on read requests (Count)
system.cpu2.mmu.itb.wrAccesses                6640220                       # TLB accesses on write requests (Count)
system.cpu2.mmu.itb.rdMisses                        0                       # TLB misses on read requests (Count)
system.cpu2.mmu.itb.wrMisses                      445                       # TLB misses on write requests (Count)
system.cpu2.mmu.itb.walker.power_state.pwrStateResidencyTicks::UNDEFINED 2736780749500                       # Cumulative time (in ticks) in various power states (Tick)
system.cpu2.power_state.numTransitions             15                       # Number of power state transitions (Count)
system.cpu2.power_state.ticksClkGated::samples            8                       # Distribution of time spent in the clock gated state (Tick)
system.cpu2.power_state.ticksClkGated::mean 130464372250                       # Distribution of time spent in the clock gated state (Tick)
system.cpu2.power_state.ticksClkGated::stdev 365681041277.059753                       # Distribution of time spent in the clock gated state (Tick)
system.cpu2.power_state.ticksClkGated::1000-5e+10            7     87.50%     87.50% # Distribution of time spent in the clock gated state (Tick)
system.cpu2.power_state.ticksClkGated::overflows            1     12.50%    100.00% # Distribution of time spent in the clock gated state (Tick)
system.cpu2.power_state.ticksClkGated::min_value     11700000                       # Distribution of time spent in the clock gated state (Tick)
system.cpu2.power_state.ticksClkGated::max_value 1035468066000                       # Distribution of time spent in the clock gated state (Tick)
system.cpu2.power_state.ticksClkGated::total            8                       # Distribution of time spent in the clock gated state (Tick)
system.cpu2.power_state.pwrStateResidencyTicks::ON 1693065771500                       # Cumulative time (in ticks) in various power states (Tick)
system.cpu2.power_state.pwrStateResidencyTicks::CLK_GATED 1043714978000                       # Cumulative time (in ticks) in various power states (Tick)
system.cpu2.thread_0.numInsts                       0                       # Number of Instructions committed (Count)
system.cpu2.thread_0.numOps                         0                       # Number of Ops committed (Count)
system.cpu2.thread_0.numMemRefs                     0                       # Number of Memory References (Count)
system.cpu3.allLatencyDist::bucket_size         10000                       # delay distribution for all (Unspecified)
system.cpu3.allLatencyDist::min_bucket              0                       # delay distribution for all (Unspecified)
system.cpu3.allLatencyDist::max_bucket        1600000                       # delay distribution for all (Unspecified)
system.cpu3.allLatencyDist::samples            233650                       # delay distribution for all (Unspecified)
system.cpu3.allLatencyDist::mean         3550792.381768                       # delay distribution for all (Unspecified)
system.cpu3.allLatencyDist::stdev        2055185.846111                       # delay distribution for all (Unspecified)
system.cpu3.allLatencyDist::underflows              0      0.00%      0.00% # delay distribution for all (Unspecified)
system.cpu3.allLatencyDist               |           0      0.00%      0.00% |           0      0.00%      0.00% |           0      0.00%      0.00% |           0      0.00%      0.00% |           0      0.00%      0.00% |           0      0.00%      0.00% |           0      0.00%      0.00% |           0      0.00%      0.00% |           0      0.00%      0.00% |           0      0.00%      0.00% |           0      0.00%      0.00% |           0      0.00%      0.00% |           0      0.00%      0.00% |           0      0.00%      0.00% |           0      0.00%      0.00% |           0      0.00%      0.00% |           0      0.00%      0.00% |           0      0.00%      0.00% |           0      0.00%      0.00% |           0      0.00%      0.00% |           0      0.00%      0.00% |           0      0.00%      0.00% |           0      0.00%      0.00% |           0      0.00%      0.00% |           0      0.00%      0.00% |           0      0.00%      0.00% |           1      0.00%      0.00% |           0      0.00%      0.00% |           3      0.00%      0.00% |           0      0.00%      0.00% |           2      0.00%      0.00% |           2      0.00%      0.00% |           2      0.00%      0.00% |           2      0.00%      0.01% |           3      0.00%      0.01% |           3      0.00%      0.01% |           6      0.00%      0.01% |           1      0.00%      0.01% |           1      0.00%      0.01% |           1      0.00%      0.01% |           4      0.00%      0.01% |           1      0.00%      0.01% |          17      0.01%      0.02% |           7      0.00%      0.02% |          18      0.01%      0.03% |           2      0.00%      0.03% |          17      0.01%      0.04% |          19      0.01%      0.05% |          17      0.01%      0.06% |          24      0.01%      0.07% |           4      0.00%      0.07% |          20      0.01%      0.08% |          15      0.01%      0.08% |          20      0.01%      0.09% |           5      0.00%      0.09% |           8      0.00%      0.10% |           0      0.00%      0.10% |           4      0.00%      0.10% |          35      0.01%      0.11% |          19      0.01%      0.12% |          20      0.01%      0.13% |           3      0.00%      0.13% |          17      0.01%      0.14% |           6      0.00%      0.14% |          17      0.01%      0.15% |           7      0.00%      0.15% |           7      0.00%      0.15% |           4      0.00%      0.16% |          23      0.01%      0.17% |           3      0.00%      0.17% |          21      0.01%      0.18% |          18      0.01%      0.18% |          20      0.01%      0.19% |          20      0.01%      0.20% |          30      0.01%      0.21% |          23      0.01%      0.22% |          14      0.01%      0.23% |          23      0.01%      0.24% |           4      0.00%      0.24% |          12      0.01%      0.25% |           4      0.00%      0.25% |           5      0.00%      0.25% |           6      0.00%      0.25% |           3      0.00%      0.25% |          18      0.01%      0.26% |          28      0.01%      0.27% |          36      0.02%      0.29% |          18      0.01%      0.30% |          18      0.01%      0.30% |          12      0.01%      0.31% |          20      0.01%      0.32% |          34      0.01%      0.33% |          17      0.01%      0.34% |          21      0.01%      0.35% |          28      0.01%      0.36% |          28      0.01%      0.37% |          26      0.01%      0.38% |          23      0.01%      0.39% |          29      0.01%      0.41% |          28      0.01%      0.42% |          27      0.01%      0.43% |          23      0.01%      0.44% |          34      0.01%      0.45% |          26      0.01%      0.47% |          44      0.02%      0.48% |          45      0.02%      0.50% |          54      0.02%      0.53% |          61      0.03%      0.55% |          77      0.03%      0.59% |          53      0.02%      0.61% |          49      0.02%      0.63% |          43      0.02%      0.65% |          50      0.02%      0.67% |          48      0.02%      0.69% |          58      0.02%      0.71% |          61      0.03%      0.74% |          50      0.02%      0.76% |          54      0.02%      0.78% |          56      0.02%      0.81% |          59      0.03%      0.83% |          77      0.03%      0.87% |          60      0.03%      0.89% |          68      0.03%      0.92% |          92      0.04%      0.96% |          70      0.03%      0.99% |          80      0.03%      1.03% |          56      0.02%      1.05% |          65      0.03%      1.08% |          50      0.02%      1.10% |          52      0.02%      1.12% |          44      0.02%      1.14% |          55      0.02%      1.16% |          74      0.03%      1.19% |          70      0.03%      1.22% |          69      0.03%      1.25% |          39      0.02%      1.27% |          64      0.03%      1.30% |          62      0.03%      1.33% |          68      0.03%      1.35% |          62      0.03%      1.38% |          72      0.03%      1.41% |          46      0.02%      1.43% |          65      0.03%      1.46% |          57      0.02%      1.48% |          54      0.02%      1.51% |          70      0.03%      1.54% |          60      0.03%      1.56% |          70      0.03%      1.59% |          51      0.02%      1.61% |          51      0.02%      1.64% |          74      0.03%      1.67% |          70      0.03%      1.70% |          80      0.03%      1.73% |          69      0.03%      1.76% |          64      0.03%      1.79% |          81      0.03%      1.82% |          70      0.03%      1.85% |          78      0.03%      1.89% |          58      0.02%      1.91% |          57      0.02%      1.94% |          11      0.00%      1.94% # delay distribution for all (Unspecified)
system.cpu3.allLatencyDist::overflows          229116     98.06%    100.00% # delay distribution for all (Unspecified)
system.cpu3.allLatencyDist::min_value          265000                       # delay distribution for all (Unspecified)
system.cpu3.allLatencyDist::max_value         9880000                       # delay distribution for all (Unspecified)
system.cpu3.allLatencyDist::total              233650                       # delay distribution for all (Unspecified)
system.cpu3.loadLatencyDist::bucket_size        10000                       # delay distribution for loads (Unspecified)
system.cpu3.loadLatencyDist::min_bucket             0                       # delay distribution for loads (Unspecified)
system.cpu3.loadLatencyDist::max_bucket       1600000                       # delay distribution for loads (Unspecified)
system.cpu3.loadLatencyDist::samples            74768                       # delay distribution for loads (Unspecified)
system.cpu3.loadLatencyDist::mean        6345451.329446                       # delay distribution for loads (Unspecified)
system.cpu3.loadLatencyDist::stdev       690970.048722                       # delay distribution for loads (Unspecified)
system.cpu3.loadLatencyDist::underflows             0      0.00%      0.00% # delay distribution for loads (Unspecified)
[...]
system.cpu3.cacheBlockRoundTrip7::overflows            0                       # Coalsr-to-coalsr time for the Nth cache block in an inst (Unspecified)
system.cpu3.cacheBlockRoundTrip7::min_value            0                       # Coalsr-to-coalsr time for the Nth cache block in an inst (Unspecified)
system.cpu3.cacheBlockRoundTrip7::max_value            0                       # Coalsr-to-coalsr time for the Nth cache block in an inst (Unspecified)
system.cpu3.cacheBlockRoundTrip7::total             0                       # Coalsr-to-coalsr time for the Nth cache block in an inst (Unspecified)
system.cpu3.cacheBlockRoundTrip8::bucket_size        10000                       # Coalsr-to-coalsr time for the Nth cache block in an inst (Unspecified)
system.cpu3.cacheBlockRoundTrip8::min_bucket            0                       # Coalsr-to-coalsr time for the Nth cache block in an inst (Unspecified)
system.cpu3.cacheBlockRoundTrip8::max_bucket      1600000                       # Coalsr-to-coalsr time for the Nth cache block in an inst (Unspecified)
system.cpu3.cacheBlockRoundTrip8::samples            0                       # Coalsr-to-coalsr time for the Nth cache block in an inst (Unspecified)
system.cpu3.cacheBlockRoundTrip8::mean            nan                       # Coalsr-to-coalsr time for the Nth cache block in an inst (Unspecified)
system.cpu3.cacheBlockRoundTrip8::stdev           nan                       # Coalsr-to-coalsr time for the Nth cache block in an inst (Unspecified)
system.cpu3.cacheBlockRoundTrip8::underflows            0                       # Coalsr-to-coalsr time for the Nth cache block in an inst (Unspecified)
system.cpu3.cacheBlockRoundTrip8         |           0                       |           0                       |           0                       |           0                       |           0                       |           0                       |           0                       |           0                       |           0                       |           0                       |           0                       |           0                       |           0                       |           0                       |           0                       |           0                       |           0                       |           0                       |           0                       |           0                       |           0                       |           0                       |           0                       |           0                       |           0                       |           0                       |           0                       |           0                       |           0                       |           0                       |           0                       |           0                       |           0                       |           0                       |           0                       |           0                       |           0                       |           0                       |           0                       |           0                       |           0                       |           0                       |           0                       |           0                       |           0                       |           0                       |           0                       |           0                       |           0                       |           0                       |           0                       |           0                       |           0                       |           0                       |           0                       |           0                       |           0                       |           0                       |           0                       |           0                       |           0                       |           0                       |           0                       |           0                       |           0                       |           0                       |           0                       |           0                       |           0                       |           0                       |           0                       |           0                       |           0                       |           0                       |           0                       |           0                       |           0                       |           0                       |           0                       |           0                       |           0                       |           0                       |           0                       |           0                       |           0                       |           0                       |           0                       |           0                       |           0                       |           0                       |           0                       |           0                       |           0                       |           0                       |           0                       |           0                       |           0                       |           0                       |           0                       |           0                       |           0                       |           0                       |           0                       |           0                       |           0                       |           0                       |           0                       |           0                       |           0                       |           0                       |           0                       |           0                       |           0                       |           0                       |           0                       |           0                       |           0                       |           0                       |           0                       |           0                       |           0                       |           0                       |           0                       |           0                       |           0                       |           0                       |           0                       |           0                       |           0                       |           0                       |           0                       |           0                       |           0                       |           0                       |           0                       |           0                       |           0                       |           0                       |           0                       |           0                       |           0                       |           0                       |           0                       |           0                       |           0                       |           0                       |           0                       |           0                       |           0                       |           0                       |           0                       |           0                       |           0                       |           0                       |           0                       |           0                       |           0                       |           0                       |           0                       |           0                       |           0                       # Coalsr-to-coalsr time for the Nth cache block in an inst (Unspecified)
system.cpu3.cacheBlockRoundTrip8::overflows            0                       # Coalsr-to-coalsr time for the Nth cache block in an inst (Unspecified)
system.cpu3.cacheBlockRoundTrip8::min_value            0                       # Coalsr-to-coalsr time for the Nth cache block in an inst (Unspecified)
system.cpu3.cacheBlockRoundTrip8::max_value            0                       # Coalsr-to-coalsr time for the Nth cache block in an inst (Unspecified)
system.cpu3.cacheBlockRoundTrip8::total             0                       # Coalsr-to-coalsr time for the Nth cache block in an inst (Unspecified)
system.cpu3.cacheBlockRoundTrip9::bucket_size        10000                       # Coalsr-to-coalsr time for the Nth cache block in an inst (Unspecified)
system.cpu3.cacheBlockRoundTrip9::min_bucket            0                       # Coalsr-to-coalsr time for the Nth cache block in an inst (Unspecified)
system.cpu3.cacheBlockRoundTrip9::max_bucket      1600000                       # Coalsr-to-coalsr time for the Nth cache block in an inst (Unspecified)
system.cpu3.cacheBlockRoundTrip9::samples            0                       # Coalsr-to-coalsr time for the Nth cache block in an inst (Unspecified)
system.cpu3.cacheBlockRoundTrip9::mean            nan                       # Coalsr-to-coalsr time for the Nth cache block in an inst (Unspecified)
system.cpu3.cacheBlockRoundTrip9::stdev           nan                       # Coalsr-to-coalsr time for the Nth cache block in an inst (Unspecified)
system.cpu3.cacheBlockRoundTrip9::underflows            0                       # Coalsr-to-coalsr time for the Nth cache block in an inst (Unspecified)
system.cpu3.cacheBlockRoundTrip9         |           0                       |           0                       |           0                       |           0                       |           0                       |           0                       |           0                       |           0                       |           0                       |           0                       |           0                       |           0                       |           0                       |           0                       |           0                       |           0                       |           0                       |           0                       |           0                       |           0                       |           0                       |           0                       |           0                       |           0                       |           0                       |           0                       |           0                       |           0                       |           0                       |           0                       |           0                       |           0                       |           0                       |           0                       |           0                       |           0                       |           0                       |           0                       |           0                       |           0                       |           0                       |           0                       |           0                       |           0                       |           0                       |           0                       |           0                       |           0                       |           0                       |           0                       |           0                       |           0                       |           0                       |           0                       |           0                       |           0                       |           0                       |           0                       |           0                       |           0                       |           0                       |           0                       |           0                       |           0                       |           0                       |           0                       |           0                       |           0                       |           0                       |           0                       |           0                       |           0                       |           0                       |           0                       |           0                       |           0                       |           0                       |           0                       |           0                       |           0                       |           0                       |           0                       |           0                       |           0                       |           0                       |           0                       |           0                       |           0                       |           0                       |           0                       |           0                       |           0                       |           0                       |           0                       |           0                       |           0                       |           0                       |           0                       |           0                       |           0                       |           0                       |           0                       |           0                       |           0                       |           0                       |           0                       |           0                       |           0                       |           0                       |           0                       |           0                       |           0                       |           0                       |           0                       |           0                       |           0                       |           0                       |           0                       |           0                       |           0                       |           0                       |           0                       |           0                       |           0                       |           0                       |           0                       |           0                       |           0                       |           0                       |           0                       |           0                       |           0                       |           0                       |           0                       |           0                       |           0                       |           0                       |           0                       |           0                       |           0                       |           0                       |           0                       |           0                       |           0                       |           0                       |           0                       |           0                       |           0                       |           0                       |           0                       |           0                       |           0                       |           0                       |           0                       |           0                       |           0                       |           0                       |           0                       |           0                       |           0                       |           0                       # Coalsr-to-coalsr time for the Nth cache block in an inst (Unspecified)
system.cpu3.cacheBlockRoundTrip9::overflows            0                       # Coalsr-to-coalsr time for the Nth cache block in an inst (Unspecified)
system.cpu3.cacheBlockRoundTrip9::min_value            0                       # Coalsr-to-coalsr time for the Nth cache block in an inst (Unspecified)
system.cpu3.cacheBlockRoundTrip9::max_value            0                       # Coalsr-to-coalsr time for the Nth cache block in an inst (Unspecified)
system.cpu3.cacheBlockRoundTrip9::total             0                       # Coalsr-to-coalsr time for the Nth cache block in an inst (Unspecified)

---------- End Simulation Statistics   ----------
