
---------- Begin Simulation Statistics ----------
simSeconds                                   1.214234                       # Number of seconds simulated (Second)
simTicks                                 1214233523000                       # Number of ticks simulated (Tick)
finalTick                                1214233523000                       # Number of ticks from beginning of simulation (restored from checkpoints and never reset) (Tick)
simFreq                                  1000000000000                       # The number of ticks per simulated second ((Tick/Second))
hostSeconds                                   2480.12                       # Real time elapsed on the host (Second)
hostTickRate                                489586198                       # The number of ticks simulated per host second (ticks/s) ((Tick/Second))
hostMemory                                   24130556                       # Number of bytes of host memory used (Byte)
simInsts                                    623347575                       # Number of instructions simulated (Count)
simOps                                     1215323925                       # Number of ops (including micro ops) simulated (Count)
hostInstRate                                   251337                       # Simulator instruction rate (inst/s) ((Count/Second))
hostOpRate                                     490026                       # Simulator op (including micro ops) rate (op/s) ((Count/Second))
system.work_item_type0::samples                     1                       # Run time stat forwork_item_type0 (Unspecified)
system.work_item_type0::mean             190947589500                       # Run time stat forwork_item_type0 (Unspecified)
system.work_item_type0::gmean            190947589500.000031                       # Run time stat forwork_item_type0 (Unspecified)
system.work_item_type0::stdev                     nan                       # Run time stat forwork_item_type0 (Unspecified)
system.work_item_type0::0-1.71799e+10               0      0.00%      0.00% # Run time stat forwork_item_type0 (Unspecified)
system.work_item_type0::1.71799e+10-3.43597e+10            0      0.00%      0.00% # Run time stat forwork_item_type0 (Unspecified)
system.work_item_type0::3.43597e+10-5.15396e+10            0      0.00%      0.00% # Run time stat forwork_item_type0 (Unspecified)
system.work_item_type0::5.15396e+10-6.87195e+10            0      0.00%      0.00% # Run time stat forwork_item_type0 (Unspecified)
system.work_item_type0::6.87195e+10-8.58993e+10            0      0.00%      0.00% # Run time stat forwork_item_type0 (Unspecified)
system.work_item_type0::8.58993e+10-1.03079e+11            0      0.00%      0.00% # Run time stat forwork_item_type0 (Unspecified)
system.work_item_type0::1.03079e+11-1.20259e+11            0      0.00%      0.00% # Run time stat forwork_item_type0 (Unspecified)
system.work_item_type0::1.20259e+11-1.37439e+11            0      0.00%      0.00% # Run time stat forwork_item_type0 (Unspecified)
system.work_item_type0::1.37439e+11-1.54619e+11            0      0.00%      0.00% # Run time stat forwork_item_type0 (Unspecified)
system.work_item_type0::1.54619e+11-1.71799e+11            0      0.00%      0.00% # Run time stat forwork_item_type0 (Unspecified)
system.work_item_type0::1.71799e+11-1.88979e+11            0      0.00%      0.00% # Run time stat forwork_item_type0 (Unspecified)
system.work_item_type0::1.88979e+11-2.06158e+11            1    100.00%    100.00% # Run time stat forwork_item_type0 (Unspecified)
system.work_item_type0::2.06158e+11-2.23338e+11            0      0.00%    100.00% # Run time stat forwork_item_type0 (Unspecified)
system.work_item_type0::2.23338e+11-2.40518e+11            0      0.00%    100.00% # Run time stat forwork_item_type0 (Unspecified)
system.work_item_type0::2.40518e+11-2.57698e+11            0      0.00%    100.00% # Run time stat forwork_item_type0 (Unspecified)
system.work_item_type0::2.57698e+11-2.74878e+11            0      0.00%    100.00% # Run time stat forwork_item_type0 (Unspecified)
system.work_item_type0::2.74878e+11-2.92058e+11            0      0.00%    100.00% # Run time stat forwork_item_type0 (Unspecified)
system.work_item_type0::2.92058e+11-3.09238e+11            0      0.00%    100.00% # Run time stat forwork_item_type0 (Unspecified)
system.work_item_type0::3.09238e+11-3.26418e+11            0      0.00%    100.00% # Run time stat forwork_item_type0 (Unspecified)
system.work_item_type0::3.26418e+11-3.43597e+11            0      0.00%    100.00% # Run time stat forwork_item_type0 (Unspecified)
system.work_item_type0::total                       1                       # Run time stat forwork_item_type0 (Unspecified)
system.clk_domain.clock                          1000                       # Clock period in ticks (Tick)
system.cpu0.numCycles                      2428467046                       # Number of cpu cycles simulated (Cycle)
system.cpu0.numWorkItemsStarted                     1                       # Number of work items this cpu started (Count)
system.cpu0.numWorkItemsCompleted                   1                       # Number of work items this cpu completed (Count)
system.cpu0.clk_domain.clock                      500                       # Clock period in ticks (Tick)
system.cpu0.clk_domain.voltage_domain.voltage            1                       # Voltage in Volts (Volt)
system.cpu0.exec_context.thread_0.numInsts    550998762                       # Number of instructions committed (Count)
system.cpu0.exec_context.thread_0.numOps   1074353057                       # Number of ops (including micro ops) committed (Count)
system.cpu0.exec_context.thread_0.numIntAluAccesses   1046908541                       # Number of integer alu accesses (Count)
system.cpu0.exec_context.thread_0.numFpAluAccesses     19892859                       # Number of float alu accesses (Count)
system.cpu0.exec_context.thread_0.numVecAluAccesses            0                       # Number of vector alu accesses (Count)
system.cpu0.exec_context.thread_0.numCallsReturns     46838182                       # Number of times a function call or return occured (Count)
system.cpu0.exec_context.thread_0.numCondCtrlInsts     81617255                       # Number of instructions that are conditional controls (Count)
system.cpu0.exec_context.thread_0.numIntInsts   1046908541                       # Number of integer instructions (Count)
system.cpu0.exec_context.thread_0.numFpInsts     19892859                       # Number of float instructions (Count)
system.cpu0.exec_context.thread_0.numVecInsts            0                       # Number of vector instructions (Count)
system.cpu0.exec_context.thread_0.numIntRegReads   1273012652                       # Number of times the integer registers were read (Count)
system.cpu0.exec_context.thread_0.numIntRegWrites    722132491                       # Number of times the integer registers were written (Count)
system.cpu0.exec_context.thread_0.numFpRegReads     20227815                       # Number of times the floating registers were read (Count)
system.cpu0.exec_context.thread_0.numFpRegWrites     12504526                       # Number of times the floating registers were written (Count)
system.cpu0.exec_context.thread_0.numVecRegReads            0                       # Number of times the vector registers were read (Count)
system.cpu0.exec_context.thread_0.numVecRegWrites            0                       # Number of times the vector registers were written (Count)
system.cpu0.exec_context.thread_0.numVecPredRegReads            0                       # Number of times the predicate registers were read (Count)
system.cpu0.exec_context.thread_0.numVecPredRegWrites            0                       # Number of times the predicate registers were written (Count)
system.cpu0.exec_context.thread_0.numCCRegReads    531313906                       # Number of times the CC registers were read (Count)
system.cpu0.exec_context.thread_0.numCCRegWrites    255956854                       # Number of times the CC registers were written (Count)
system.cpu0.exec_context.thread_0.numMiscRegReads    513321101                       # Number of times the Misc registers were read (Count)
system.cpu0.exec_context.thread_0.numMiscRegWrites         4978                       # Number of times the Misc registers were written (Count)
system.cpu0.exec_context.thread_0.numMemRefs    230445844                       # Number of memory refs (Count)
system.cpu0.exec_context.thread_0.numLoadInsts    144352349                       # Number of load instructions (Count)
system.cpu0.exec_context.thread_0.numStoreInsts     86093495                       # Number of store instructions (Count)
system.cpu0.exec_context.thread_0.numIdleCycles 8423055.001993                       # Number of idle cycles (Cycle)
system.cpu0.exec_context.thread_0.numBusyCycles 2420043990.998007                       # Number of busy cycles (Cycle)
system.cpu0.exec_context.thread_0.notIdleFraction     0.996532                       # Percentage of non-idle cycles (Ratio)
system.cpu0.exec_context.thread_0.idleFraction     0.003468                       # Percentage of idle cycles (Ratio)
system.cpu0.exec_context.thread_0.numBranches    151678970                       # Number of branches fetched (Count)
system.cpu0.exec_context.thread_0.statExecutedInstType::No_OpClass     19708027      1.82%      1.82% # Class of executed instruction. (Count)
system.cpu0.exec_context.thread_0.statExecutedInstType::IntAlu    822352155     76.02%     77.84% # Class of executed instruction. (Count)
system.cpu0.exec_context.thread_0.statExecutedInstType::IntMult      1232233      0.11%     77.95% # Class of executed instruction. (Count)
system.cpu0.exec_context.thread_0.statExecutedInstType::IntDiv       231258      0.02%     77.98% # Class of executed instruction. (Count)
system.cpu0.exec_context.thread_0.statExecutedInstType::FloatAdd      1828090      0.17%     78.14% # Class of executed instruction. (Count)
system.cpu0.exec_context.thread_0.statExecutedInstType::FloatCmp           87      0.00%     78.14% # Class of executed instruction. (Count)
system.cpu0.exec_context.thread_0.statExecutedInstType::FloatCvt         7258      0.00%     78.15% # Class of executed instruction. (Count)
system.cpu0.exec_context.thread_0.statExecutedInstType::FloatMult           29      0.00%     78.15% # Class of executed instruction. (Count)
system.cpu0.exec_context.thread_0.statExecutedInstType::FloatMultAcc            0      0.00%     78.15% # Class of executed instruction. (Count)
system.cpu0.exec_context.thread_0.statExecutedInstType::FloatDiv           29      0.00%     78.15% # Class of executed instruction. (Count)
system.cpu0.exec_context.thread_0.statExecutedInstType::FloatMisc            0      0.00%     78.15% # Class of executed instruction. (Count)
system.cpu0.exec_context.thread_0.statExecutedInstType::FloatSqrt            0      0.00%     78.15% # Class of executed instruction. (Count)
system.cpu0.exec_context.thread_0.statExecutedInstType::SimdAdd        23368      0.00%     78.15% # Class of executed instruction. (Count)
system.cpu0.exec_context.thread_0.statExecutedInstType::SimdAddAcc            0      0.00%     78.15% # Class of executed instruction. (Count)
system.cpu0.exec_context.thread_0.statExecutedInstType::SimdAlu       940121      0.09%     78.23% # Class of executed instruction. (Count)
system.cpu0.exec_context.thread_0.statExecutedInstType::SimdCmp         3090      0.00%     78.23% # Class of executed instruction. (Count)
system.cpu0.exec_context.thread_0.statExecutedInstType::SimdCvt       665876      0.06%     78.30% # Class of executed instruction. (Count)
system.cpu0.exec_context.thread_0.statExecutedInstType::SimdMisc      3494999      0.32%     78.62% # Class of executed instruction. (Count)
system.cpu0.exec_context.thread_0.statExecutedInstType::SimdMult            0      0.00%     78.62% # Class of executed instruction. (Count)
system.cpu0.exec_context.thread_0.statExecutedInstType::SimdMultAcc            0      0.00%     78.62% # Class of executed instruction. (Count)
system.cpu0.exec_context.thread_0.statExecutedInstType::SimdShift         9117      0.00%     78.62% # Class of executed instruction. (Count)
system.cpu0.exec_context.thread_0.statExecutedInstType::SimdShiftAcc            0      0.00%     78.62% # Class of executed instruction. (Count)
system.cpu0.exec_context.thread_0.statExecutedInstType::SimdDiv            0      0.00%     78.62% # Class of executed instruction. (Count)
system.cpu0.exec_context.thread_0.statExecutedInstType::SimdSqrt            0      0.00%     78.62% # Class of executed instruction. (Count)
system.cpu0.exec_context.thread_0.statExecutedInstType::SimdFloatAdd        92611      0.01%     78.63% # Class of executed instruction. (Count)
system.cpu0.exec_context.thread_0.statExecutedInstType::SimdFloatAlu            0      0.00%     78.63% # Class of executed instruction. (Count)
system.cpu0.exec_context.thread_0.statExecutedInstType::SimdFloatCmp            0      0.00%     78.63% # Class of executed instruction. (Count)
system.cpu0.exec_context.thread_0.statExecutedInstType::SimdFloatCvt       558799      0.05%     78.68% # Class of executed instruction. (Count)
system.cpu0.exec_context.thread_0.statExecutedInstType::SimdFloatDiv            5      0.00%     78.68% # Class of executed instruction. (Count)
system.cpu0.exec_context.thread_0.statExecutedInstType::SimdFloatMisc            0      0.00%     78.68% # Class of executed instruction. (Count)
system.cpu0.exec_context.thread_0.statExecutedInstType::SimdFloatMult       185247      0.02%     78.70% # Class of executed instruction. (Count)
system.cpu0.exec_context.thread_0.statExecutedInstType::SimdFloatMultAcc            0      0.00%     78.70% # Class of executed instruction. (Count)
system.cpu0.exec_context.thread_0.statExecutedInstType::SimdFloatSqrt            0      0.00%     78.70% # Class of executed instruction. (Count)
system.cpu0.exec_context.thread_0.statExecutedInstType::SimdReduceAdd            0      0.00%     78.70% # Class of executed instruction. (Count)
system.cpu0.exec_context.thread_0.statExecutedInstType::SimdReduceAlu            0      0.00%     78.70% # Class of executed instruction. (Count)
system.cpu0.exec_context.thread_0.statExecutedInstType::SimdReduceCmp            0      0.00%     78.70% # Class of executed instruction. (Count)
system.cpu0.exec_context.thread_0.statExecutedInstType::SimdFloatReduceAdd            0      0.00%     78.70% # Class of executed instruction. (Count)
system.cpu0.exec_context.thread_0.statExecutedInstType::SimdFloatReduceCmp            0      0.00%     78.70% # Class of executed instruction. (Count)
system.cpu0.exec_context.thread_0.statExecutedInstType::SimdAes            0      0.00%     78.70% # Class of executed instruction. (Count)
system.cpu0.exec_context.thread_0.statExecutedInstType::SimdAesMix            0      0.00%     78.70% # Class of executed instruction. (Count)
system.cpu0.exec_context.thread_0.statExecutedInstType::SimdSha1Hash            0      0.00%     78.70% # Class of executed instruction. (Count)
system.cpu0.exec_context.thread_0.statExecutedInstType::SimdSha1Hash2            0      0.00%     78.70% # Class of executed instruction. (Count)
system.cpu0.exec_context.thread_0.statExecutedInstType::SimdSha256Hash            0      0.00%     78.70% # Class of executed instruction. (Count)
system.cpu0.exec_context.thread_0.statExecutedInstType::SimdSha256Hash2            0      0.00%     78.70% # Class of executed instruction. (Count)
system.cpu0.exec_context.thread_0.statExecutedInstType::SimdShaSigma2            0      0.00%     78.70% # Class of executed instruction. (Count)
system.cpu0.exec_context.thread_0.statExecutedInstType::SimdShaSigma3            0      0.00%     78.70% # Class of executed instruction. (Count)
system.cpu0.exec_context.thread_0.statExecutedInstType::SimdPredAlu            0      0.00%     78.70% # Class of executed instruction. (Count)
system.cpu0.exec_context.thread_0.statExecutedInstType::MemRead    139778613     12.92%     91.62% # Class of executed instruction. (Count)
system.cpu0.exec_context.thread_0.statExecutedInstType::MemWrite     79727220      7.37%     98.99% # Class of executed instruction. (Count)
system.cpu0.exec_context.thread_0.statExecutedInstType::FloatMemRead      4573736      0.42%     99.41% # Class of executed instruction. (Count)
system.cpu0.exec_context.thread_0.statExecutedInstType::FloatMemWrite      6366275      0.59%    100.00% # Class of executed instruction. (Count)
system.cpu0.exec_context.thread_0.statExecutedInstType::IprAccess            0      0.00%    100.00% # Class of executed instruction. (Count)
system.cpu0.exec_context.thread_0.statExecutedInstType::InstPrefetch            0      0.00%    100.00% # Class of executed instruction. (Count)
system.cpu0.exec_context.thread_0.statExecutedInstType::total   1081778243                       # Class of executed instruction. (Count)
system.cpu0.interrupts.clk_domain.clock          8000                       # Clock period in ticks (Tick)
system.cpu0.mmu.dtb.rdAccesses              144973977                       # TLB accesses on read requests (Count)
system.cpu0.mmu.dtb.wrAccesses               86322787                       # TLB accesses on write requests (Count)
system.cpu0.mmu.dtb.rdMisses                    27850                       # TLB misses on read requests (Count)
system.cpu0.mmu.dtb.wrMisses                    17856                       # TLB misses on write requests (Count)
system.cpu0.mmu.dtb.walker.power_state.pwrStateResidencyTicks::UNDEFINED 1214233523000                       # Cumulative time (in ticks) in various power states (Tick)
system.cpu0.mmu.itb.rdAccesses                      0                       # TLB accesses on read requests (Count)
system.cpu0.mmu.itb.wrAccesses              728550120                       # TLB accesses on write requests (Count)
system.cpu0.mmu.itb.rdMisses                        0                       # TLB misses on read requests (Count)
system.cpu0.mmu.itb.wrMisses                    11132                       # TLB misses on write requests (Count)
system.cpu0.mmu.itb.walker.power_state.pwrStateResidencyTicks::UNDEFINED 1214233523000                       # Cumulative time (in ticks) in various power states (Tick)
system.cpu0.power_state.numTransitions             78                       # Number of power state transitions (Count)
system.cpu0.power_state.ticksClkGated::samples           39                       # Distribution of time spent in the clock gated state (Tick)
system.cpu0.power_state.ticksClkGated::mean 107987884.615385                       # Distribution of time spent in the clock gated state (Tick)
system.cpu0.power_state.ticksClkGated::stdev 652375657.323077                       # Distribution of time spent in the clock gated state (Tick)
system.cpu0.power_state.ticksClkGated::1000-5e+10           39    100.00%    100.00% # Distribution of time spent in the clock gated state (Tick)
system.cpu0.power_state.ticksClkGated::min_value       134500                       # Distribution of time spent in the clock gated state (Tick)
system.cpu0.power_state.ticksClkGated::max_value   4076793500                       # Distribution of time spent in the clock gated state (Tick)
system.cpu0.power_state.ticksClkGated::total           39                       # Distribution of time spent in the clock gated state (Tick)
system.cpu0.power_state.pwrStateResidencyTicks::ON 1210021995500                       # Cumulative time (in ticks) in various power states (Tick)
system.cpu0.power_state.pwrStateResidencyTicks::CLK_GATED   4211527500                       # Cumulative time (in ticks) in various power states (Tick)
system.cpu0.thread_0.numInsts                       0                       # Number of Instructions committed (Count)
system.cpu0.thread_0.numOps                         0                       # Number of Ops committed (Count)
system.cpu0.thread_0.numMemRefs                     0                       # Number of Memory References (Count)
system.cpu0.workload.numSyscalls              7419740                       # Number of system calls (Count)
system.cpu0.workload.drivers0.device.dispatcher.numKernelLaunched         1051                       # number of kernel launched (Unspecified)
system.cpu0.workload.drivers0.device.dispatcher.cyclesWaitingForDispatch         3153                       # number of cycles with outstanding wavefronts that are waiting to be dispatched (Unspecified)
system.cpu0.workload.drivers0.device.hsapp.power_state.pwrStateResidencyTicks::UNDEFINED 1214233523000                       # Cumulative time (in ticks) in various power states (Tick)
system.cpu0.workload.drivers0.device.hsapp.walker.power_state.pwrStateResidencyTicks::UNDEFINED 1214233523000                       # Cumulative time (in ticks) in various power states (Tick)
system.cpu0.workload.drivers0.device.power_state.pwrStateResidencyTicks::UNDEFINED 1214233523000                       # Cumulative time (in ticks) in various power states (Tick)
system.cpu0.workload.drivers0.device.walker.power_state.pwrStateResidencyTicks::UNDEFINED 1214233523000                       # Cumulative time (in ticks) in various power states (Tick)
system.cpu1.numCycles                      2029420653                       # Number of cpu cycles simulated (Cycle)
system.cpu1.numWorkItemsStarted                     0                       # Number of work items this cpu started (Count)
system.cpu1.numWorkItemsCompleted                   0                       # Number of work items this cpu completed (Count)
system.cpu1.clk_domain.clock                      500                       # Clock period in ticks (Tick)
system.cpu1.clk_domain.voltage_domain.voltage            1                       # Voltage in Volts (Volt)
system.cpu1.exec_context.thread_0.numInsts       345763                       # Number of instructions committed (Count)
system.cpu1.exec_context.thread_0.numOps       643939                       # Number of ops (including micro ops) committed (Count)
system.cpu1.exec_context.thread_0.numIntAluAccesses       620525                       # Number of integer alu accesses (Count)
system.cpu1.exec_context.thread_0.numFpAluAccesses        20260                       # Number of float alu accesses (Count)
system.cpu1.exec_context.thread_0.numVecAluAccesses            0                       # Number of vector alu accesses (Count)
system.cpu1.exec_context.thread_0.numCallsReturns        18126                       # Number of times a function call or return occured (Count)
system.cpu1.exec_context.thread_0.numCondCtrlInsts        89425                       # Number of instructions that are conditional controls (Count)
system.cpu1.exec_context.thread_0.numIntInsts       620525                       # Number of integer instructions (Count)
system.cpu1.exec_context.thread_0.numFpInsts        20260                       # Number of float instructions (Count)
system.cpu1.exec_context.thread_0.numVecInsts            0                       # Number of vector instructions (Count)
system.cpu1.exec_context.thread_0.numIntRegReads       676026                       # Number of times the integer registers were read (Count)
system.cpu1.exec_context.thread_0.numIntRegWrites       403427                       # Number of times the integer registers were written (Count)
system.cpu1.exec_context.thread_0.numFpRegReads        24383                       # Number of times the floating registers were read (Count)
system.cpu1.exec_context.thread_0.numFpRegWrites        17004                       # Number of times the floating registers were written (Count)
system.cpu1.exec_context.thread_0.numVecRegReads            0                       # Number of times the vector registers were read (Count)
system.cpu1.exec_context.thread_0.numVecRegWrites            0                       # Number of times the vector registers were written (Count)
system.cpu1.exec_context.thread_0.numVecPredRegReads            0                       # Number of times the predicate registers were read (Count)
system.cpu1.exec_context.thread_0.numVecPredRegWrites            0                       # Number of times the predicate registers were written (Count)
system.cpu1.exec_context.thread_0.numCCRegReads       546648                       # Number of times the CC registers were read (Count)
system.cpu1.exec_context.thread_0.numCCRegWrites       187386                       # Number of times the CC registers were written (Count)
system.cpu1.exec_context.thread_0.numMiscRegReads       374281                       # Number of times the Misc registers were read (Count)
system.cpu1.exec_context.thread_0.numMiscRegWrites           27                       # Number of times the Misc registers were written (Count)
system.cpu1.exec_context.thread_0.numMemRefs       158762                       # Number of memory refs (Count)
system.cpu1.exec_context.thread_0.numLoadInsts       144013                       # Number of load instructions (Count)
system.cpu1.exec_context.thread_0.numStoreInsts        14749                       # Number of store instructions (Count)
system.cpu1.exec_context.thread_0.numIdleCycles 2028302302.947777                       # Number of idle cycles (Cycle)
system.cpu1.exec_context.thread_0.numBusyCycles 1118350.052223                       # Number of busy cycles (Cycle)
system.cpu1.exec_context.thread_0.notIdleFraction     0.000551                       # Percentage of non-idle cycles (Ratio)
system.cpu1.exec_context.thread_0.idleFraction     0.999449                       # Percentage of idle cycles (Ratio)
system.cpu1.exec_context.thread_0.numBranches       110236                       # Number of branches fetched (Count)
system.cpu1.exec_context.thread_0.statExecutedInstType::No_OpClass        10537      1.64%      1.64% # Class of executed instruction. (Count)
system.cpu1.exec_context.thread_0.statExecutedInstType::IntAlu       460517     71.51%     73.15% # Class of executed instruction. (Count)
system.cpu1.exec_context.thread_0.statExecutedInstType::IntMult            3      0.00%     73.15% # Class of executed instruction. (Count)
system.cpu1.exec_context.thread_0.statExecutedInstType::IntDiv           75      0.01%     73.16% # Class of executed instruction. (Count)
system.cpu1.exec_context.thread_0.statExecutedInstType::FloatAdd         2866      0.45%     73.61% # Class of executed instruction. (Count)
system.cpu1.exec_context.thread_0.statExecutedInstType::FloatCmp            0      0.00%     73.61% # Class of executed instruction. (Count)
system.cpu1.exec_context.thread_0.statExecutedInstType::FloatCvt           48      0.01%     73.62% # Class of executed instruction. (Count)
system.cpu1.exec_context.thread_0.statExecutedInstType::FloatMult            0      0.00%     73.62% # Class of executed instruction. (Count)
system.cpu1.exec_context.thread_0.statExecutedInstType::FloatMultAcc            0      0.00%     73.62% # Class of executed instruction. (Count)
system.cpu1.exec_context.thread_0.statExecutedInstType::FloatDiv            0      0.00%     73.62% # Class of executed instruction. (Count)
system.cpu1.exec_context.thread_0.statExecutedInstType::FloatMisc            0      0.00%     73.62% # Class of executed instruction. (Count)
system.cpu1.exec_context.thread_0.statExecutedInstType::FloatSqrt            0      0.00%     73.62% # Class of executed instruction. (Count)
system.cpu1.exec_context.thread_0.statExecutedInstType::SimdAdd           20      0.00%     73.62% # Class of executed instruction. (Count)
system.cpu1.exec_context.thread_0.statExecutedInstType::SimdAddAcc            0      0.00%     73.62% # Class of executed instruction. (Count)
system.cpu1.exec_context.thread_0.statExecutedInstType::SimdAlu         2758      0.43%     74.05% # Class of executed instruction. (Count)
system.cpu1.exec_context.thread_0.statExecutedInstType::SimdCmp            0      0.00%     74.05% # Class of executed instruction. (Count)
system.cpu1.exec_context.thread_0.statExecutedInstType::SimdCvt           40      0.01%     74.05% # Class of executed instruction. (Count)
system.cpu1.exec_context.thread_0.statExecutedInstType::SimdMisc         1544      0.24%     74.29% # Class of executed instruction. (Count)
system.cpu1.exec_context.thread_0.statExecutedInstType::SimdMult            0      0.00%     74.29% # Class of executed instruction. (Count)
system.cpu1.exec_context.thread_0.statExecutedInstType::SimdMultAcc            0      0.00%     74.29% # Class of executed instruction. (Count)
system.cpu1.exec_context.thread_0.statExecutedInstType::SimdShift           21      0.00%     74.30% # Class of executed instruction. (Count)
system.cpu1.exec_context.thread_0.statExecutedInstType::SimdShiftAcc            0      0.00%     74.30% # Class of executed instruction. (Count)
system.cpu1.exec_context.thread_0.statExecutedInstType::SimdDiv            0      0.00%     74.30% # Class of executed instruction. (Count)
system.cpu1.exec_context.thread_0.statExecutedInstType::SimdSqrt            0      0.00%     74.30% # Class of executed instruction. (Count)
system.cpu1.exec_context.thread_0.statExecutedInstType::SimdFloatAdd         1351      0.21%     74.51% # Class of executed instruction. (Count)
system.cpu1.exec_context.thread_0.statExecutedInstType::SimdFloatAlu            0      0.00%     74.51% # Class of executed instruction. (Count)
system.cpu1.exec_context.thread_0.statExecutedInstType::SimdFloatCmp            0      0.00%     74.51% # Class of executed instruction. (Count)
system.cpu1.exec_context.thread_0.statExecutedInstType::SimdFloatCvt         4047      0.63%     75.13% # Class of executed instruction. (Count)
system.cpu1.exec_context.thread_0.statExecutedInstType::SimdFloatDiv            7      0.00%     75.14% # Class of executed instruction. (Count)
system.cpu1.exec_context.thread_0.statExecutedInstType::SimdFloatMisc            0      0.00%     75.14% # Class of executed instruction. (Count)
system.cpu1.exec_context.thread_0.statExecutedInstType::SimdFloatMult         1352      0.21%     75.35% # Class of executed instruction. (Count)
system.cpu1.exec_context.thread_0.statExecutedInstType::SimdFloatMultAcc            0      0.00%     75.35% # Class of executed instruction. (Count)
system.cpu1.exec_context.thread_0.statExecutedInstType::SimdFloatSqrt            0      0.00%     75.35% # Class of executed instruction. (Count)
system.cpu1.exec_context.thread_0.statExecutedInstType::SimdReduceAdd            0      0.00%     75.35% # Class of executed instruction. (Count)
system.cpu1.exec_context.thread_0.statExecutedInstType::SimdReduceAlu            0      0.00%     75.35% # Class of executed instruction. (Count)
system.cpu1.exec_context.thread_0.statExecutedInstType::SimdReduceCmp            0      0.00%     75.35% # Class of executed instruction. (Count)
system.cpu1.exec_context.thread_0.statExecutedInstType::SimdFloatReduceAdd            0      0.00%     75.35% # Class of executed instruction. (Count)
system.cpu1.exec_context.thread_0.statExecutedInstType::SimdFloatReduceCmp            0      0.00%     75.35% # Class of executed instruction. (Count)
system.cpu1.exec_context.thread_0.statExecutedInstType::SimdAes            0      0.00%     75.35% # Class of executed instruction. (Count)
system.cpu1.exec_context.thread_0.statExecutedInstType::SimdAesMix            0      0.00%     75.35% # Class of executed instruction. (Count)
system.cpu1.exec_context.thread_0.statExecutedInstType::SimdSha1Hash            0      0.00%     75.35% # Class of executed instruction. (Count)
system.cpu1.exec_context.thread_0.statExecutedInstType::SimdSha1Hash2            0      0.00%     75.35% # Class of executed instruction. (Count)
system.cpu1.exec_context.thread_0.statExecutedInstType::SimdSha256Hash            0      0.00%     75.35% # Class of executed instruction. (Count)
system.cpu1.exec_context.thread_0.statExecutedInstType::SimdSha256Hash2            0      0.00%     75.35% # Class of executed instruction. (Count)
system.cpu1.exec_context.thread_0.statExecutedInstType::SimdShaSigma2            0      0.00%     75.35% # Class of executed instruction. (Count)
system.cpu1.exec_context.thread_0.statExecutedInstType::SimdShaSigma3            0      0.00%     75.35% # Class of executed instruction. (Count)
system.cpu1.exec_context.thread_0.statExecutedInstType::SimdPredAlu            0      0.00%     75.35% # Class of executed instruction. (Count)
system.cpu1.exec_context.thread_0.statExecutedInstType::MemRead       138458     21.50%     96.85% # Class of executed instruction. (Count)
system.cpu1.exec_context.thread_0.statExecutedInstType::MemWrite        14252      2.21%     99.06% # Class of executed instruction. (Count)
system.cpu1.exec_context.thread_0.statExecutedInstType::FloatMemRead         5555      0.86%     99.92% # Class of executed instruction. (Count)
system.cpu1.exec_context.thread_0.statExecutedInstType::FloatMemWrite          497      0.08%    100.00% # Class of executed instruction. (Count)
system.cpu1.exec_context.thread_0.statExecutedInstType::IprAccess            0      0.00%    100.00% # Class of executed instruction. (Count)
system.cpu1.exec_context.thread_0.statExecutedInstType::InstPrefetch            0      0.00%    100.00% # Class of executed instruction. (Count)
system.cpu1.exec_context.thread_0.statExecutedInstType::total       643948                       # Class of executed instruction. (Count)
system.cpu1.interrupts.clk_domain.clock          8000                       # Clock period in ticks (Tick)
system.cpu1.mmu.dtb.rdAccesses                 144013                       # TLB accesses on read requests (Count)
system.cpu1.mmu.dtb.wrAccesses                  14749                       # TLB accesses on write requests (Count)
system.cpu1.mmu.dtb.rdMisses                      156                       # TLB misses on read requests (Count)
system.cpu1.mmu.dtb.wrMisses                        3                       # TLB misses on write requests (Count)
system.cpu1.mmu.dtb.walker.power_state.pwrStateResidencyTicks::UNDEFINED 1214233523000                       # Cumulative time (in ticks) in various power states (Tick)
system.cpu1.mmu.itb.rdAccesses                      0                       # TLB accesses on read requests (Count)
system.cpu1.mmu.itb.wrAccesses                 456739                       # TLB accesses on write requests (Count)
system.cpu1.mmu.itb.rdMisses                        0                       # TLB misses on read requests (Count)
system.cpu1.mmu.itb.wrMisses                      132                       # TLB misses on write requests (Count)
system.cpu1.mmu.itb.walker.power_state.pwrStateResidencyTicks::UNDEFINED 1214233523000                       # Cumulative time (in ticks) in various power states (Tick)
system.cpu1.power_state.numTransitions              3                       # Number of power state transitions (Count)
system.cpu1.power_state.ticksClkGated::samples            2                       # Distribution of time spent in the clock gated state (Tick)
system.cpu1.power_state.ticksClkGated::mean 100795654000                       # Distribution of time spent in the clock gated state (Tick)
system.cpu1.power_state.ticksClkGated::stdev 139621829583.266144                       # Distribution of time spent in the clock gated state (Tick)
system.cpu1.power_state.ticksClkGated::1000-5e+10            1     50.00%     50.00% # Distribution of time spent in the clock gated state (Tick)
system.cpu1.power_state.ticksClkGated::1.5e+11-2e+11            1     50.00%    100.00% # Distribution of time spent in the clock gated state (Tick)
system.cpu1.power_state.ticksClkGated::min_value   2068111500                       # Distribution of time spent in the clock gated state (Tick)
system.cpu1.power_state.ticksClkGated::max_value 199523196500                       # Distribution of time spent in the clock gated state (Tick)
system.cpu1.power_state.ticksClkGated::total            2                       # Distribution of time spent in the clock gated state (Tick)
system.cpu1.power_state.pwrStateResidencyTicks::ON 1012642215000                       # Cumulative time (in ticks) in various power states (Tick)
system.cpu1.power_state.pwrStateResidencyTicks::CLK_GATED 201591308000                       # Cumulative time (in ticks) in various power states (Tick)
system.cpu1.thread_0.numInsts                       0                       # Number of Instructions committed (Count)
system.cpu1.thread_0.numOps                         0                       # Number of Ops committed (Count)
system.cpu1.thread_0.numMemRefs                     0                       # Number of Memory References (Count)
system.cpu2.numCycles                      2408267240                       # Number of cpu cycles simulated (Cycle)
system.cpu2.numWorkItemsStarted                     0                       # Number of work items this cpu started (Count)
system.cpu2.numWorkItemsCompleted                   0                       # Number of work items this cpu completed (Count)
system.cpu2.clk_domain.clock                      500                       # Clock period in ticks (Tick)
system.cpu2.clk_domain.voltage_domain.voltage            1                       # Voltage in Volts (Volt)
system.cpu2.exec_context.thread_0.numInsts     72003050                       # Number of instructions committed (Count)
system.cpu2.exec_context.thread_0.numOps    140326929                       # Number of ops (including micro ops) committed (Count)
system.cpu2.exec_context.thread_0.numIntAluAccesses    118784724                       # Number of integer alu accesses (Count)
system.cpu2.exec_context.thread_0.numFpAluAccesses     32596526                       # Number of float alu accesses (Count)
system.cpu2.exec_context.thread_0.numVecAluAccesses            0                       # Number of vector alu accesses (Count)
system.cpu2.exec_context.thread_0.numCallsReturns       470360                       # Number of times a function call or return occured (Count)
system.cpu2.exec_context.thread_0.numCondCtrlInsts     15286356                       # Number of instructions that are conditional controls (Count)
system.cpu2.exec_context.thread_0.numIntInsts    118784724                       # Number of integer instructions (Count)
system.cpu2.exec_context.thread_0.numFpInsts     32596526                       # Number of float instructions (Count)
system.cpu2.exec_context.thread_0.numVecInsts            0                       # Number of vector instructions (Count)
system.cpu2.exec_context.thread_0.numIntRegReads    126385586                       # Number of times the integer registers were read (Count)
system.cpu2.exec_context.thread_0.numIntRegWrites     76711744                       # Number of times the integer registers were written (Count)
system.cpu2.exec_context.thread_0.numFpRegReads     40779827                       # Number of times the floating registers were read (Count)
system.cpu2.exec_context.thread_0.numFpRegWrites     27987562                       # Number of times the floating registers were written (Count)
system.cpu2.exec_context.thread_0.numVecRegReads            0                       # Number of times the vector registers were read (Count)
system.cpu2.exec_context.thread_0.numVecRegWrites            0                       # Number of times the vector registers were written (Count)
system.cpu2.exec_context.thread_0.numVecPredRegReads            0                       # Number of times the predicate registers were read (Count)
system.cpu2.exec_context.thread_0.numVecPredRegWrites            0                       # Number of times the predicate registers were written (Count)
system.cpu2.exec_context.thread_0.numCCRegReads    121156543                       # Number of times the CC registers were read (Count)
system.cpu2.exec_context.thread_0.numCCRegWrites     42291359                       # Number of times the CC registers were written (Count)
system.cpu2.exec_context.thread_0.numMiscRegReads     63002857                       # Number of times the Misc registers were read (Count)
system.cpu2.exec_context.thread_0.numMiscRegWrites          329                       # Number of times the Misc registers were written (Count)
system.cpu2.exec_context.thread_0.numMemRefs     20403232                       # Number of memory refs (Count)
system.cpu2.exec_context.thread_0.numLoadInsts     18961094                       # Number of load instructions (Count)
system.cpu2.exec_context.thread_0.numStoreInsts      1442138                       # Number of store instructions (Count)
system.cpu2.exec_context.thread_0.numIdleCycles 2112713377.034496                       # Number of idle cycles (Cycle)
system.cpu2.exec_context.thread_0.numBusyCycles 295553862.965504                       # Number of busy cycles (Cycle)
system.cpu2.exec_context.thread_0.notIdleFraction     0.122725                       # Percentage of non-idle cycles (Ratio)
system.cpu2.exec_context.thread_0.idleFraction     0.877275                       # Percentage of idle cycles (Ratio)
system.cpu2.exec_context.thread_0.numBranches     17947074                       # Number of branches fetched (Count)
system.cpu2.exec_context.thread_0.statExecutedInstType::No_OpClass       805546      0.57%      0.57% # Class of executed instruction. (Count)
system.cpu2.exec_context.thread_0.statExecutedInstType::IntAlu     96176588     68.53%     69.11% # Class of executed instruction. (Count)
system.cpu2.exec_context.thread_0.statExecutedInstType::IntMult        13450      0.01%     69.12% # Class of executed instruction. (Count)
system.cpu2.exec_context.thread_0.statExecutedInstType::IntDiv        32493      0.02%     69.14% # Class of executed instruction. (Count)
system.cpu2.exec_context.thread_0.statExecutedInstType::FloatAdd      3858942      2.75%     71.89% # Class of executed instruction. (Count)
system.cpu2.exec_context.thread_0.statExecutedInstType::FloatCmp            3      0.00%     71.89% # Class of executed instruction. (Count)
system.cpu2.exec_context.thread_0.statExecutedInstType::FloatCvt          530      0.00%     71.89% # Class of executed instruction. (Count)
system.cpu2.exec_context.thread_0.statExecutedInstType::FloatMult            1      0.00%     71.89% # Class of executed instruction. (Count)
system.cpu2.exec_context.thread_0.statExecutedInstType::FloatMultAcc            0      0.00%     71.89% # Class of executed instruction. (Count)
system.cpu2.exec_context.thread_0.statExecutedInstType::FloatDiv            1      0.00%     71.89% # Class of executed instruction. (Count)
system.cpu2.exec_context.thread_0.statExecutedInstType::FloatMisc            0      0.00%     71.89% # Class of executed instruction. (Count)
system.cpu2.exec_context.thread_0.statExecutedInstType::FloatSqrt            0      0.00%     71.89% # Class of executed instruction. (Count)
system.cpu2.exec_context.thread_0.statExecutedInstType::SimdAdd          408      0.00%     71.89% # Class of executed instruction. (Count)
system.cpu2.exec_context.thread_0.statExecutedInstType::SimdAddAcc            0      0.00%     71.89% # Class of executed instruction. (Count)
system.cpu2.exec_context.thread_0.statExecutedInstType::SimdAlu      4900474      3.49%     75.38% # Class of executed instruction. (Count)
system.cpu2.exec_context.thread_0.statExecutedInstType::SimdCmp           12      0.00%     75.38% # Class of executed instruction. (Count)
system.cpu2.exec_context.thread_0.statExecutedInstType::SimdCvt          558      0.00%     75.38% # Class of executed instruction. (Count)
system.cpu2.exec_context.thread_0.statExecutedInstType::SimdMisc      2452784      1.75%     77.13% # Class of executed instruction. (Count)
system.cpu2.exec_context.thread_0.statExecutedInstType::SimdMult            0      0.00%     77.13% # Class of executed instruction. (Count)
system.cpu2.exec_context.thread_0.statExecutedInstType::SimdMultAcc            0      0.00%     77.13% # Class of executed instruction. (Count)
system.cpu2.exec_context.thread_0.statExecutedInstType::SimdShift          283      0.00%     77.13% # Class of executed instruction. (Count)
system.cpu2.exec_context.thread_0.statExecutedInstType::SimdShiftAcc            0      0.00%     77.13% # Class of executed instruction. (Count)
system.cpu2.exec_context.thread_0.statExecutedInstType::SimdDiv            0      0.00%     77.13% # Class of executed instruction. (Count)
system.cpu2.exec_context.thread_0.statExecutedInstType::SimdSqrt            0      0.00%     77.13% # Class of executed instruction. (Count)
system.cpu2.exec_context.thread_0.statExecutedInstType::SimdFloatAdd      2440257      1.74%     78.87% # Class of executed instruction. (Count)
system.cpu2.exec_context.thread_0.statExecutedInstType::SimdFloatAlu            0      0.00%     78.87% # Class of executed instruction. (Count)
system.cpu2.exec_context.thread_0.statExecutedInstType::SimdFloatCmp            0      0.00%     78.87% # Class of executed instruction. (Count)
system.cpu2.exec_context.thread_0.statExecutedInstType::SimdFloatCvt      6808047      4.85%     83.72% # Class of executed instruction. (Count)
system.cpu2.exec_context.thread_0.statExecutedInstType::SimdFloatDiv         1647      0.00%     83.72% # Class of executed instruction. (Count)
system.cpu2.exec_context.thread_0.statExecutedInstType::SimdFloatMisc            0      0.00%     83.72% # Class of executed instruction. (Count)
system.cpu2.exec_context.thread_0.statExecutedInstType::SimdFloatMult      2442061      1.74%     85.46% # Class of executed instruction. (Count)
system.cpu2.exec_context.thread_0.statExecutedInstType::SimdFloatMultAcc            0      0.00%     85.46% # Class of executed instruction. (Count)
system.cpu2.exec_context.thread_0.statExecutedInstType::SimdFloatSqrt            0      0.00%     85.46% # Class of executed instruction. (Count)
system.cpu2.exec_context.thread_0.statExecutedInstType::SimdReduceAdd            0      0.00%     85.46% # Class of executed instruction. (Count)
system.cpu2.exec_context.thread_0.statExecutedInstType::SimdReduceAlu            0      0.00%     85.46% # Class of executed instruction. (Count)
system.cpu2.exec_context.thread_0.statExecutedInstType::SimdReduceCmp            0      0.00%     85.46% # Class of executed instruction. (Count)
system.cpu2.exec_context.thread_0.statExecutedInstType::SimdFloatReduceAdd            0      0.00%     85.46% # Class of executed instruction. (Count)
system.cpu2.exec_context.thread_0.statExecutedInstType::SimdFloatReduceCmp            0      0.00%     85.46% # Class of executed instruction. (Count)
system.cpu2.exec_context.thread_0.statExecutedInstType::SimdAes            0      0.00%     85.46% # Class of executed instruction. (Count)
system.cpu2.exec_context.thread_0.statExecutedInstType::SimdAesMix            0      0.00%     85.46% # Class of executed instruction. (Count)
system.cpu2.exec_context.thread_0.statExecutedInstType::SimdSha1Hash            0      0.00%     85.46% # Class of executed instruction. (Count)
system.cpu2.exec_context.thread_0.statExecutedInstType::SimdSha1Hash2            0      0.00%     85.46% # Class of executed instruction. (Count)
system.cpu2.exec_context.thread_0.statExecutedInstType::SimdSha256Hash            0      0.00%     85.46% # Class of executed instruction. (Count)
system.cpu2.exec_context.thread_0.statExecutedInstType::SimdSha256Hash2            0      0.00%     85.46% # Class of executed instruction. (Count)
system.cpu2.exec_context.thread_0.statExecutedInstType::SimdShaSigma2            0      0.00%     85.46% # Class of executed instruction. (Count)
system.cpu2.exec_context.thread_0.statExecutedInstType::SimdShaSigma3            0      0.00%     85.46% # Class of executed instruction. (Count)
system.cpu2.exec_context.thread_0.statExecutedInstType::SimdPredAlu            0      0.00%     85.46% # Class of executed instruction. (Count)
system.cpu2.exec_context.thread_0.statExecutedInstType::MemRead      9519289      6.78%     92.24% # Class of executed instruction. (Count)
system.cpu2.exec_context.thread_0.statExecutedInstType::MemWrite      1198648      0.85%     93.10% # Class of executed instruction. (Count)
system.cpu2.exec_context.thread_0.statExecutedInstType::FloatMemRead      9441805      6.73%     99.83% # Class of executed instruction. (Count)
system.cpu2.exec_context.thread_0.statExecutedInstType::FloatMemWrite       243490      0.17%    100.00% # Class of executed instruction. (Count)
system.cpu2.exec_context.thread_0.statExecutedInstType::IprAccess            0      0.00%    100.00% # Class of executed instruction. (Count)
system.cpu2.exec_context.thread_0.statExecutedInstType::InstPrefetch            0      0.00%    100.00% # Class of executed instruction. (Count)
system.cpu2.exec_context.thread_0.statExecutedInstType::total    140337317                       # Class of executed instruction. (Count)
system.cpu2.interrupts.clk_domain.clock          8000                       # Clock period in ticks (Tick)
system.cpu2.mmu.dtb.rdAccesses               18961125                       # TLB accesses on read requests (Count)
system.cpu2.mmu.dtb.wrAccesses                1442403                       # TLB accesses on write requests (Count)
system.cpu2.mmu.dtb.rdMisses                     1556                       # TLB misses on read requests (Count)
system.cpu2.mmu.dtb.wrMisses                      589                       # TLB misses on write requests (Count)
system.cpu2.mmu.dtb.walker.power_state.pwrStateResidencyTicks::UNDEFINED 1214233523000                       # Cumulative time (in ticks) in various power states (Tick)
system.cpu2.mmu.itb.rdAccesses                      0                       # TLB accesses on read requests (Count)
system.cpu2.mmu.itb.wrAccesses              101438661                       # TLB accesses on write requests (Count)
system.cpu2.mmu.itb.rdMisses                        0                       # TLB misses on read requests (Count)
system.cpu2.mmu.itb.wrMisses                     3640                       # TLB misses on write requests (Count)
system.cpu2.mmu.itb.walker.power_state.pwrStateResidencyTicks::UNDEFINED 1214233523000                       # Cumulative time (in ticks) in various power states (Tick)
system.cpu2.power_state.numTransitions           2759                       # Number of power state transitions (Count)
system.cpu2.power_state.ticksClkGated::samples         1380                       # Distribution of time spent in the clock gated state (Tick)
system.cpu2.power_state.ticksClkGated::mean 37667360.507246                       # Distribution of time spent in the clock gated state (Tick)
system.cpu2.power_state.ticksClkGated::stdev 306015712.284501                       # Distribution of time spent in the clock gated state (Tick)
system.cpu2.power_state.ticksClkGated::1000-5e+10         1380    100.00%    100.00% # Distribution of time spent in the clock gated state (Tick)
system.cpu2.power_state.ticksClkGated::min_value       286500                       # Distribution of time spent in the clock gated state (Tick)
system.cpu2.power_state.ticksClkGated::max_value  10099903000                       # Distribution of time spent in the clock gated state (Tick)
system.cpu2.power_state.ticksClkGated::total         1380                       # Distribution of time spent in the clock gated state (Tick)
system.cpu2.power_state.pwrStateResidencyTicks::ON 1162252565500                       # Cumulative time (in ticks) in various power states (Tick)
system.cpu2.power_state.pwrStateResidencyTicks::CLK_GATED  51980957500                       # Cumulative time (in ticks) in various power states (Tick)
system.cpu2.thread_0.numInsts                       0                       # Number of Instructions committed (Count)
system.cpu2.thread_0.numOps                         0                       # Number of Ops committed (Count)
system.cpu2.thread_0.numMemRefs                     0                       # Number of Memory References (Count)
system.cpu3.allLatencyDist::bucket_size         10000                       # delay distribution for all (Unspecified)
system.cpu3.allLatencyDist::min_bucket              0                       # delay distribution for all (Unspecified)
system.cpu3.allLatencyDist::max_bucket        1600000                       # delay distribution for all (Unspecified)
system.cpu3.allLatencyDist::samples           6709127                       # delay distribution for all (Unspecified)
system.cpu3.allLatencyDist::mean         293510.613676                       # delay distribution for all (Unspecified)
system.cpu3.allLatencyDist::stdev        200620.686166                       # delay distribution for all (Unspecified)
system.cpu3.allLatencyDist::underflows              0      0.00%      0.00% # delay distribution for all (Unspecified)
system.cpu3.allLatencyDist               |           0      0.00%      0.00% |           0      0.00%      0.00% |           0      0.00%      0.00% |           0      0.00%      0.00% |           0      0.00%      0.00% |           0      0.00%      0.00% |           0      0.00%      0.00% |           0      0.00%      0.00% |           0      0.00%      0.00% |           0      0.00%      0.00% |      968825     14.44%     14.44% |      140322      2.09%     16.53% |      271217      4.04%     20.57% |      262632      3.91%     24.49% |      256738      3.83%     28.32% |      171387      2.55%     30.87% |      114491      1.71%     32.58% |       84929      1.27%     33.84% |       68279      1.02%     34.86% |       72084      1.07%     35.93% |       89271      1.33%     37.27% |      107682      1.61%     38.87% |       95090      1.42%     40.29% |      112194      1.67%     41.96% |      213999      3.19%     45.15% |      195094      2.91%     48.06% |      191988      2.86%     50.92% |      191620      2.86%     53.78% |      169993      2.53%     56.31% |      148948      2.22%     58.53% |      127101      1.89%     60.42% |      119700      1.78%     62.21% |      125514      1.87%     64.08% |      131740      1.96%     66.04% |      190129      2.83%     68.88% |      164061      2.45%     71.32% |      118764      1.77%     73.09% |      112264      1.67%     74.76% |      105993      1.58%     76.34% |      100939      1.50%     77.85% |       93578      1.39%     79.24% |       90980      1.36%     80.60% |       94155      1.40%     82.00% |       83538      1.25%     83.25% |       75858      1.13%     84.38% |       67779      1.01%     85.39% |       60143      0.90%     86.29% |       56694      0.85%     87.13% |       52392      0.78%     87.91% |       57910      0.86%     88.77% |       58600      0.87%     89.65% |       53743      0.80%     90.45% |       48087      0.72%     91.17% |       43314      0.65%     91.81% |       39536      0.59%     92.40% |       34745      0.52%     92.92% |       34422      0.51%     93.43% |       32332      0.48%     93.91% |       27741      0.41%     94.33% |       24253      0.36%     94.69% |       21157      0.32%     95.00% |       19027      0.28%     95.29% |       16969      0.25%     95.54% |       16864      0.25%     95.79% |       17834      0.27%     96.06% |       15771      0.24%     96.29% |       15065      0.22%     96.52% |       15509      0.23%     96.75% |       15588      0.23%     96.98% |       15069      0.22%     97.21% |       14892      0.22%     97.43% |       14266      0.21%     97.64% |       13130      0.20%     97.84% |       11774      0.18%     98.01% |       11253      0.17%     98.18% |       10556      0.16%     98.34% |        9887      0.15%     98.48% |        9369      0.14%     98.62% |        8588      0.13%     98.75% |        7678      0.11%     98.87% |        7125      0.11%     98.97% |        6414      0.10%     99.07% |        6002      0.09%     99.16% |        5171      0.08%     99.23% |        4818      0.07%     99.31% |        4194      0.06%     99.37% |        3641      0.05%     99.42% |        3113      0.05%     99.47% |        2807      0.04%     99.51% |        2745      0.04%     99.55% |        2179      0.03%     99.58% |        2206      0.03%     99.62% |        1851      0.03%     99.64% |        1614      0.02%     99.67% |        1451      0.02%     99.69% |        1318      0.02%     99.71% |        1137      0.02%     99.73% |         871      0.01%     99.74% |         955      0.01%     99.75% |         634      0.01%     99.76% |         722      0.01%     99.77% |         485      0.01%     99.78% |         550      0.01%     99.79% |         387      0.01%     99.80% |         454      0.01%     99.80% |         313      0.00%     99.81% |         426      0.01%     99.81% |         207      0.00%     99.82% |         350      0.01%     99.82% |         156      0.00%     99.82% |         322      0.00%     99.83% |         158      0.00%     99.83% |         263      0.00%     99.84% |         128      0.00%     99.84% |         267      0.00%     99.84% |          89      0.00%     99.84% |         106      0.00%     99.84% |          73      0.00%     99.85% |          80      0.00%     99.85% |          78      0.00%     99.85% |          82      0.00%     99.85% |          83      0.00%     99.85% |          73      0.00%     99.85% |          64      0.00%     99.85% |          64      0.00%     99.85% |          64      0.00%     99.85% |          54      0.00%     99.85% |          64      0.00%     99.86% |          49      0.00%     99.86% |          52      0.00%     99.86% |          46      0.00%     99.86% |          52      0.00%     99.86% |          44      0.00%     99.86% |          48      0.00%     99.86% |          38      0.00%     99.86% |          45      0.00%     99.86% |          44      0.00%     99.86% |          56      0.00%     99.86% |          42      0.00%     99.86% |          48      0.00%     99.86% |          40      0.00%     99.86% |          36      0.00%     99.87% |          37      0.00%     99.87% |          46      0.00%     99.87% |          33      0.00%     99.87% |          33      0.00%     99.87% |          41      0.00%     99.87% |          35      0.00%     99.87% |          38      0.00%     99.87% |          30      0.00%     99.87% |          38      0.00%     99.87% |          50      0.00%     99.87% |          26      0.00%     99.87% |          32      0.00%     99.87% |          37      0.00%     99.87% |          37      0.00%     99.87% |          35      0.00%     99.87% |          38      0.00%     99.87% |          36      0.00%     99.87% |          43      0.00%     99.88% |           4      0.00%     99.88% # delay distribution for all (Unspecified)
system.cpu3.allLatencyDist::overflows            8376      0.12%    100.00% # delay distribution for all (Unspecified)
system.cpu3.allLatencyDist::min_value          105000                       # delay distribution for all (Unspecified)
system.cpu3.allLatencyDist::max_value         8034000                       # delay distribution for all (Unspecified)
system.cpu3.allLatencyDist::total             6709127                       # delay distribution for all (Unspecified)
system.cpu3.loadLatencyDist::bucket_size        10000                       # delay distribution for loads (Unspecified)
system.cpu3.loadLatencyDist::min_bucket             0                       # delay distribution for loads (Unspecified)
system.cpu3.loadLatencyDist::max_bucket       1600000                       # delay distribution for loads (Unspecified)
system.cpu3.loadLatencyDist::samples          5845285                       # delay distribution for loads (Unspecified)
system.cpu3.loadLatencyDist::mean        287995.986851                       # delay distribution for loads (Unspecified)
system.cpu3.loadLatencyDist::stdev       211339.245888                       # delay distribution for loads (Unspecified)
system.cpu3.loadLatencyDist::underflows             0      0.00%      0.00% # delay distribution for loads (Unspecified)
system.cpu3.loadLatencyDist              |           0      0.00%      0.00% |           0      0.00%      0.00% |           0      0.00%      0.00% |           0      0.00%      0.00% |           0      0.00%      0.00% |           0      0.00%      0.00% |           0      0.00%      0.00% |           0      0.00%      0.00% |           0      0.00%      0.00% |           0      0.00%      0.00% |      968825     16.57%     16.57% |      140322      2.40%     18.98% |      271217      4.64%     23.61% |      262632      4.49%     28.11% |      256738      4.39%     32.50% |      171387      2.93%     35.43% |      114491      1.96%     37.39% |       84929      1.45%     38.84% |       68279      1.17%     40.01% |       72084      1.23%     41.25% |       89271      1.53%     42.77% |      107682      1.84%     44.61% |       95090      1.63%     46.24% |      112194      1.92%     48.16% |      143825      2.46%     50.62% |      125008      2.14%     52.76% |      120259      2.06%     54.82% |      108857      1.86%     56.68% |       94954      1.62%     58.30% |       89928      1.54%     59.84% |       85110      1.46%     61.30% |       84545      1.45%     62.75% |       88858      1.52%     64.27% |       95410      1.63%     65.90% |      157126      2.69%     68.59% |      135487      2.32%     70.90% |       94659      1.62%     72.52% |       91279      1.56%     74.08% |       86803      1.49%     75.57% |       83109      1.42%     76.99% |       77310      1.32%     78.31% |       76474      1.31%     79.62% |       81268      1.39%     81.01% |       72149      1.23%     82.25% |       66176      1.13%     83.38% |       59059      1.01%     84.39% |       52569      0.90%     85.29% |       49725      0.85%     86.14% |       46453      0.79%     86.93% |       52875      0.90%     87.84% |       54068      0.92%     88.76% |       49949      0.85%     89.62% |       44845      0.77%     90.39% |       40440      0.69%     91.08% |       36909      0.63%     91.71% |       32534      0.56%     92.27% |       32494      0.56%     92.82% |       30366      0.52%     93.34% |       26161      0.45%     93.79% |       22683      0.39%     94.18% |       19954      0.34%     94.52% |       17852      0.31%     94.82% |       15960      0.27%     95.10% |       16061      0.27%     95.37% |       16983      0.29%     95.66% |       15092      0.26%     95.92% |       14496      0.25%     96.17% |       14935      0.26%     96.42% |       15047      0.26%     96.68% |       14612      0.25%     96.93% |       14345      0.25%     97.18% |       13914      0.24%     97.41% |       12614      0.22%     97.63% |       11498      0.20%     97.83% |       10872      0.19%     98.01% |       10354      0.18%     98.19% |        9684      0.17%     98.36% |        9015      0.15%     98.51% |        8272      0.14%     98.65% |        7505      0.13%     98.78% |        6853      0.12%     98.90% |        6300      0.11%     99.00% |        5753      0.10%     99.10% |        5061      0.09%     99.19% |        4587      0.08%     99.27% |        3946      0.07%     99.34% |        3411      0.06%     99.39% |        3064      0.05%     99.45% |        2756      0.05%     99.49% |        2383      0.04%     99.53% |        2131      0.04%     99.57% |        1874      0.03%     99.60% |        1661      0.03%     99.63% |        1438      0.02%     99.66% |        1279      0.02%     99.68% |        1143      0.02%     99.70% |         958      0.02%     99.71% |         850      0.01%     99.73% |         791      0.01%     99.74% |         619      0.01%     99.75% |         560      0.01%     99.76% |         474      0.01%     99.77% |         394      0.01%     99.78% |         381      0.01%     99.78% |         302      0.01%     99.79% |         304      0.01%     99.79% |         271      0.00%     99.80% |         202      0.00%     99.80% |         189      0.00%     99.80% |         153      0.00%     99.81% |         173      0.00%     99.81% |         154      0.00%     99.81% |         115      0.00%     99.81% |         125      0.00%     99.82% |         120      0.00%     99.82% |          88      0.00%     99.82% |         106      0.00%     99.82% |          73      0.00%     99.82% |          80      0.00%     99.82% |          76      0.00%     99.83% |          82      0.00%     99.83% |          80      0.00%     99.83% |          71      0.00%     99.83% |          57      0.00%     99.83% |          63      0.00%     99.83% |          59      0.00%     99.83% |          54      0.00%     99.83% |          60      0.00%     99.84% |          49      0.00%     99.84% |          47      0.00%     99.84% |          45      0.00%     99.84% |          50      0.00%     99.84% |          44      0.00%     99.84% |          46      0.00%     99.84% |          37      0.00%     99.84% |          43      0.00%     99.84% |          42      0.00%     99.84% |          54      0.00%     99.84% |          40      0.00%     99.84% |          46      0.00%     99.84% |          39      0.00%     99.85% |          35      0.00%     99.85% |          36      0.00%     99.85% |          44      0.00%     99.85% |          32      0.00%     99.85% |          32      0.00%     99.85% |          40      0.00%     99.85% |          32      0.00%     99.85% |          38      0.00%     99.85% |          28      0.00%     99.85% |          37      0.00%     99.85% |          48      0.00%     99.85% |          25      0.00%     99.85% |          31      0.00%     99.85% |          36      0.00%     99.85% |          35      0.00%     99.85% |          35      0.00%     99.85% |          38      0.00%     99.86% |          36      0.00%     99.86% |          43      0.00%     99.86% |           4      0.00%     99.86% # delay distribution for loads (Unspecified)
system.cpu3.loadLatencyDist::overflows           8364      0.14%    100.00% # delay distribution for loads (Unspecified)
system.cpu3.loadLatencyDist::min_value         105000                       # delay distribution for loads (Unspecified)
system.cpu3.loadLatencyDist::max_value        8034000                       # delay distribution for loads (Unspecified)
system.cpu3.loadLatencyDist::total            5845285                       # delay distribution for loads (Unspecified)
system.cpu3.storeLatencyDist::bucket_size        10000                       # delay distribution for stores (Unspecified)
system.cpu3.storeLatencyDist::min_bucket            0                       # delay distribution for stores (Unspecified)
system.cpu3.storeLatencyDist::max_bucket      1600000                       # delay distribution for stores (Unspecified)
system.cpu3.storeLatencyDist::samples          863842                       # delay distribution for stores (Unspecified)
system.cpu3.storeLatencyDist::mean       330825.962387                       # delay distribution for stores (Unspecified)
system.cpu3.storeLatencyDist::stdev      93657.272648                       # delay distribution for stores (Unspecified)
system.cpu3.storeLatencyDist::underflows            0      0.00%      0.00% # delay distribution for stores (Unspecified)
system.cpu3.storeLatencyDist             |           0      0.00%      0.00% |           0      0.00%      0.00% |           0      0.00%      0.00% |           0      0.00%      0.00% |           0      0.00%      0.00% |           0      0.00%      0.00% |           0      0.00%      0.00% |           0      0.00%      0.00% |           0      0.00%      0.00% |           0      0.00%      0.00% |           0      0.00%      0.00% |           0      0.00%      0.00% |           0      0.00%      0.00% |           0      0.00%      0.00% |           0      0.00%      0.00% |           0      0.00%      0.00% |           0      0.00%      0.00% |           0      0.00%      0.00% |           0      0.00%      0.00% |           0      0.00%      0.00% |           0      0.00%      0.00% |           0      0.00%      0.00% |           0      0.00%      0.00% |           0      0.00%      0.00% |       70174      8.12%      8.12% |       70086      8.11%     16.24% |       71729      8.30%     24.54% |       82763      9.58%     34.12% |       75039      8.69%     42.81% |       59020      6.83%     49.64% |       41991      4.86%     54.50% |       35155      4.07%     58.57% |       36656      4.24%     62.81% |       36330      4.21%     67.02% |       33003      3.82%     70.84% |       28574      3.31%     74.15% |       24105      2.79%     76.94% |       20985      2.43%     79.37% |       19190      2.22%     81.59% |       17830      2.06%     83.65% |       16268      1.88%     85.54% |       14506      1.68%     87.22% |       12887      1.49%     88.71% |       11389      1.32%     90.03% |        9682      1.12%     91.15% |        8720      1.01%     92.16% |        7574      0.88%     93.03% |        6969      0.81%     93.84% |        5939      0.69%     94.53% |        5035      0.58%     95.11% |        4532      0.52%     95.63% |        3794      0.44%     96.07% |        3242      0.38%     96.45% |        2874      0.33%     96.78% |        2627      0.30%     97.09% |        2211      0.26%     97.34% |        1928      0.22%     97.56% |        1966      0.23%     97.79% |        1580      0.18%     97.98% |        1570      0.18%     98.16% |        1203      0.14%     98.30% |        1175      0.14%     98.43% |        1009      0.12%     98.55% |         803      0.09%     98.64% |         851      0.10%     98.74% |         679      0.08%     98.82% |         569      0.07%     98.89% |         574      0.07%     98.95% |         541      0.06%     99.01% |         457      0.05%     99.07% |         547      0.06%     99.13% |         352      0.04%     99.17% |         516      0.06%     99.23% |         276      0.03%     99.26% |         381      0.04%     99.31% |         202      0.02%     99.33% |         203      0.02%     99.35% |         354      0.04%     99.39% |         316      0.04%     99.43% |         173      0.02%     99.45% |         272      0.03%     99.48% |         114      0.01%     99.50% |         249      0.03%     99.53% |         110      0.01%     99.54% |         231      0.03%     99.56% |         248      0.03%     99.59% |         230      0.03%     99.62% |          49      0.01%     99.63% |          51      0.01%     99.63% |         362      0.04%     99.67% |          48      0.01%     99.68% |         332      0.04%     99.72% |         190      0.02%     99.74% |         176      0.02%     99.76% |         172      0.02%     99.78% |         175      0.02%     99.80% |         179      0.02%     99.82% |          21      0.00%     99.82% |         164      0.02%     99.84% |          15      0.00%     99.84% |         162      0.02%     99.86% |          11      0.00%     99.86% |         156      0.02%     99.88% |           6      0.00%     99.88% |         152      0.02%     99.90% |           9      0.00%     99.90% |         155      0.02%     99.92% |           5      0.00%     99.92% |         161      0.02%     99.94% |           3      0.00%     99.94% |         149      0.02%     99.96% |           4      0.00%     99.96% |         148      0.02%     99.97% |           3      0.00%     99.97% |         147      0.02%     99.99% |           1      0.00%     99.99% |           0      0.00%     99.99% |           0      0.00%     99.99% |           0      0.00%     99.99% |           2      0.00%     99.99% |           0      0.00%     99.99% |           3      0.00%     99.99% |           2      0.00%     99.99% |           7      0.00%     99.99% |           1      0.00%     99.99% |           5      0.00%     99.99% |           0      0.00%     99.99% |           4      0.00%     99.99% |           0      0.00%     99.99% |           5      0.00%     99.99% |           1      0.00%     99.99% |           2      0.00%     99.99% |           0      0.00%     99.99% |           2      0.00%     99.99% |           1      0.00%    100.00% |           2      0.00%    100.00% |           2      0.00%    100.00% |           2      0.00%    100.00% |           2      0.00%    100.00% |           2      0.00%    100.00% |           1      0.00%    100.00% |           1      0.00%    100.00% |           1      0.00%    100.00% |           2      0.00%    100.00% |           1      0.00%    100.00% |           1      0.00%    100.00% |           1      0.00%    100.00% |           3      0.00%    100.00% |           0      0.00%    100.00% |           2      0.00%    100.00% |           1      0.00%    100.00% |           2      0.00%    100.00% |           1      0.00%    100.00% |           1      0.00%    100.00% |           1      0.00%    100.00% |           2      0.00%    100.00% |           0      0.00%    100.00% |           0      0.00%    100.00% |           0      0.00%    100.00% |           0      0.00%    100.00% |           0      0.00%    100.00% # delay distribution for stores (Unspecified)
system.cpu3.storeLatencyDist::overflows            12      0.00%    100.00% # delay distribution for stores (Unspecified)
system.cpu3.storeLatencyDist::min_value        249000                       # delay distribution for stores (Unspecified)
system.cpu3.storeLatencyDist::max_value       2485000                       # delay distribution for stores (Unspecified)
system.cpu3.storeLatencyDist::total            863842                       # delay distribution for stores (Unspecified)
system.cpu3.initToCoalesceLatency::bucket_size        10000                       # Ticks from vmem inst initiateAcc to coalescer issue (Unspecified)
system.cpu3.initToCoalesceLatency::min_bucket            0                       # Ticks from vmem inst initiateAcc to coalescer issue (Unspecified)
system.cpu3.initToCoalesceLatency::max_bucket      1600000                       # Ticks from vmem inst initiateAcc to coalescer issue (Unspecified)
system.cpu3.initToCoalesceLatency::samples            0                       # Ticks from vmem inst initiateAcc to coalescer issue (Unspecified)
system.cpu3.initToCoalesceLatency::mean           nan                       # Ticks from vmem inst initiateAcc to coalescer issue (Unspecified)
system.cpu3.initToCoalesceLatency::stdev          nan                       # Ticks from vmem inst initiateAcc to coalescer issue (Unspecified)
system.cpu3.initToCoalesceLatency::underflows            0                       # Ticks from vmem inst initiateAcc to coalescer issue (Unspecified)
[...]
system.cpu3.cacheBlockRoundTrip7::overflows            0                       # Coalsr-to-coalsr time for the Nth cache block in an inst (Unspecified)
system.cpu3.cacheBlockRoundTrip7::min_value            0                       # Coalsr-to-coalsr time for the Nth cache block in an inst (Unspecified)
system.cpu3.cacheBlockRoundTrip7::max_value            0                       # Coalsr-to-coalsr time for the Nth cache block in an inst (Unspecified)
system.cpu3.cacheBlockRoundTrip7::total             0                       # Coalsr-to-coalsr time for the Nth cache block in an inst (Unspecified)
system.cpu3.cacheBlockRoundTrip8::bucket_size        10000                       # Coalsr-to-coalsr time for the Nth cache block in an inst (Unspecified)
system.cpu3.cacheBlockRoundTrip8::min_bucket            0                       # Coalsr-to-coalsr time for the Nth cache block in an inst (Unspecified)
system.cpu3.cacheBlockRoundTrip8::max_bucket      1600000                       # Coalsr-to-coalsr time for the Nth cache block in an inst (Unspecified)
system.cpu3.cacheBlockRoundTrip8::samples            0                       # Coalsr-to-coalsr time for the Nth cache block in an inst (Unspecified)
system.cpu3.cacheBlockRoundTrip8::mean            nan                       # Coalsr-to-coalsr time for the Nth cache block in an inst (Unspecified)
system.cpu3.cacheBlockRoundTrip8::stdev           nan                       # Coalsr-to-coalsr time for the Nth cache block in an inst (Unspecified)
system.cpu3.cacheBlockRoundTrip8::underflows            0                       # Coalsr-to-coalsr time for the Nth cache block in an inst (Unspecified)
system.cpu3.cacheBlockRoundTrip8         |           0                       |           0                       |           0                       |           0                       |           0                       |           0                       |           0                       |           0                       |           0                       |           0                       |           0                       |           0                       |           0                       |           0                       |           0                       |           0                       |           0                       |           0                       |           0                       |           0                       |           0                       |           0                       |           0                       |           0                       |           0                       |           0                       |           0                       |           0                       |           0                       |           0                       |           0                       |           0                       |           0                       |           0                       |           0                       |           0                       |           0                       |           0                       |           0                       |           0                       |           0                       |           0                       |           0                       |           0                       |           0                       |           0                       |           0                       |           0                       |           0                       |           0                       |           0                       |           0                       |           0                       |           0                       |           0                       |           0                       |           0                       |           0                       |           0                       |           0                       |           0                       |           0                       |           0                       |           0                       |           0                       |           0                       |           0                       |           0                       |           0                       |           0                       |           0                       |           0                       |           0                       |           0                       |           0                       |           0                       |           0                       |           0                       |           0                       |           0                       |           0                       |           0                       |           0                       |           0                       |           0                       |           0                       |           0                       |           0                       |           0                       |           0                       |           0                       |           0                       |           0                       |           0                       |           0                       |           0                       |           0                       |           0                       |           0                       |           0                       |           0                       |           0                       |           0                       |           0                       |           0                       |           0                       |           0                       |           0                       |           0                       |           0                       |           0                       |           0                       |           0                       |           0                       |           0                       |           0                       |           0                       |           0                       |           0                       |           0                       |           0                       |           0                       |           0                       |           0                       |           0                       |           0                       |           0                       |           0                       |           0                       |           0                       |           0                       |           0                       |           0                       |           0                       |           0                       |           0                       |           0                       |           0                       |           0                       |           0                       |           0                       |           0                       |           0                       |           0                       |           0                       |           0                       |           0                       |           0                       |           0                       |           0                       |           0                       |           0                       |           0                       |           0                       |           0                       |           0                       |           0                       |           0                       |           0                       |           0                       |           0                       # Coalsr-to-coalsr time for the Nth cache block in an inst (Unspecified)
system.cpu3.cacheBlockRoundTrip8::overflows            0                       # Coalsr-to-coalsr time for the Nth cache block in an inst (Unspecified)
system.cpu3.cacheBlockRoundTrip8::min_value            0                       # Coalsr-to-coalsr time for the Nth cache block in an inst (Unspecified)
system.cpu3.cacheBlockRoundTrip8::max_value            0                       # Coalsr-to-coalsr time for the Nth cache block in an inst (Unspecified)
system.cpu3.cacheBlockRoundTrip8::total             0                       # Coalsr-to-coalsr time for the Nth cache block in an inst (Unspecified)
system.cpu3.cacheBlockRoundTrip9::bucket_size        10000                       # Coalsr-to-coalsr time for the Nth cache block in an inst (Unspecified)
system.cpu3.cacheBlockRoundTrip9::min_bucket            0                       # Coalsr-to-coalsr time for the Nth cache block in an inst (Unspecified)
system.cpu3.cacheBlockRoundTrip9::max_bucket      1600000                       # Coalsr-to-coalsr time for the Nth cache block in an inst (Unspecified)
system.cpu3.cacheBlockRoundTrip9::samples            0                       # Coalsr-to-coalsr time for the Nth cache block in an inst (Unspecified)
system.cpu3.cacheBlockRoundTrip9::mean            nan                       # Coalsr-to-coalsr time for the Nth cache block in an inst (Unspecified)
system.cpu3.cacheBlockRoundTrip9::stdev           nan                       # Coalsr-to-coalsr time for the Nth cache block in an inst (Unspecified)
system.cpu3.cacheBlockRoundTrip9::underflows            0                       # Coalsr-to-coalsr time for the Nth cache block in an inst (Unspecified)
system.cpu3.cacheBlockRoundTrip9         |           0                       |           0                       |           0                       |           0                       |           0                       |           0                       |           0                       |           0                       |           0                       |           0                       |           0                       |           0                       |           0                       |           0                       |           0                       |           0                       |           0                       |           0                       |           0                       |           0                       |           0                       |           0                       |           0                       |           0                       |           0                       |           0                       |           0                       |           0                       |           0                       |           0                       |           0                       |           0                       |           0                       |           0                       |           0                       |           0                       |           0                       |           0                       |           0                       |           0                       |           0                       |           0                       |           0                       |           0                       |           0                       |           0                       |           0                       |           0                       |           0                       |           0                       |           0                       |           0                       |           0                       |           0                       |           0                       |           0                       |           0                       |           0                       |           0                       |           0                       |           0                       |           0                       |           0                       |           0                       |           0                       |           0                       |           0                       |           0                       |           0                       |           0                       |           0                       |           0                       |           0                       |           0                       |           0                       |           0                       |           0                       |           0                       |           0                       |           0                       |           0                       |           0                       |           0                       |           0                       |           0                       |           0                       |           0                       |           0                       |           0                       |           0                       |           0                       |           0                       |           0                       |           0                       |           0                       |           0                       |           0                       |           0                       |           0                       |           0                       |           0                       |           0                       |           0                       |           0                       |           0                       |           0                       |           0                       |           0                       |           0                       |           0                       |           0                       |           0                       |           0                       |           0                       |           0                       |           0                       |           0                       |           0                       |           0                       |           0                       |           0                       |           0                       |           0                       |           0                       |           0                       |           0                       |           0                       |           0                       |           0                       |           0                       |           0                       |           0                       |           0                       |           0                       |           0                       |           0                       |           0                       |           0                       |           0                       |           0                       |           0                       |           0                       |           0                       |           0                       |           0                       |           0                       |           0                       |           0                       |           0                       |           0                       |           0                       |           0                       |           0                       |           0                       |           0                       |           0                       |           0                       |           0                       |           0                       |           0                       |           0                       # Coalsr-to-coalsr time for the Nth cache block in an inst (Unspecified)
system.cpu3.cacheBlockRoundTrip9::overflows            0                       # Coalsr-to-coalsr time for the Nth cache block in an inst (Unspecified)
system.cpu3.cacheBlockRoundTrip9::min_value            0                       # Coalsr-to-coalsr time for the Nth cache block in an inst (Unspecified)
system.cpu3.cacheBlockRoundTrip9::max_value            0                       # Coalsr-to-coalsr time for the Nth cache block in an inst (Unspecified)
system.cpu3.cacheBlockRoundTrip9::total             0                       # Coalsr-to-coalsr time for the Nth cache block in an inst (Unspecified)

---------- End Simulation Statistics   ----------
