
---------- Begin Simulation Statistics ----------
simSeconds                                   1.397242                       # Number of seconds simulated (Second)
simTicks                                 1397241595500                       # Number of ticks simulated (Tick)
finalTick                                1397241595500                       # Number of ticks from beginning of simulation (restored from checkpoints and never reset) (Tick)
simFreq                                  1000000000000                       # The number of ticks per simulated second ((Tick/Second))
hostSeconds                                   3173.46                       # Real time elapsed on the host (Second)
hostTickRate                                440289507                       # The number of ticks simulated per host second (ticks/s) ((Tick/Second))
hostMemory                                   20246524                       # Number of bytes of host memory used (Byte)
simInsts                                    740571135                       # Number of instructions simulated (Count)
simOps                                     1476889540                       # Number of ops (including micro ops) simulated (Count)
hostInstRate                                   233364                       # Simulator instruction rate (inst/s) ((Count/Second))
hostOpRate                                     465388                       # Simulator op (including micro ops) rate (op/s) ((Count/Second))
system.work_item_type0::samples                     1                       # Run time stat forwork_item_type0 (Unspecified)
system.work_item_type0::mean             373721512500                       # Run time stat forwork_item_type0 (Unspecified)
system.work_item_type0::gmean            373721512499.999695                       # Run time stat forwork_item_type0 (Unspecified)
system.work_item_type0::stdev                     nan                       # Run time stat forwork_item_type0 (Unspecified)
system.work_item_type0::0-3.43597e+10               0      0.00%      0.00% # Run time stat forwork_item_type0 (Unspecified)
system.work_item_type0::3.43597e+10-6.87195e+10            0      0.00%      0.00% # Run time stat forwork_item_type0 (Unspecified)
system.work_item_type0::6.87195e+10-1.03079e+11            0      0.00%      0.00% # Run time stat forwork_item_type0 (Unspecified)
system.work_item_type0::1.03079e+11-1.37439e+11            0      0.00%      0.00% # Run time stat forwork_item_type0 (Unspecified)
system.work_item_type0::1.37439e+11-1.71799e+11            0      0.00%      0.00% # Run time stat forwork_item_type0 (Unspecified)
system.work_item_type0::1.71799e+11-2.06158e+11            0      0.00%      0.00% # Run time stat forwork_item_type0 (Unspecified)
system.work_item_type0::2.06158e+11-2.40518e+11            0      0.00%      0.00% # Run time stat forwork_item_type0 (Unspecified)
system.work_item_type0::2.40518e+11-2.74878e+11            0      0.00%      0.00% # Run time stat forwork_item_type0 (Unspecified)
system.work_item_type0::2.74878e+11-3.09238e+11            0      0.00%      0.00% # Run time stat forwork_item_type0 (Unspecified)
system.work_item_type0::3.09238e+11-3.43597e+11            0      0.00%      0.00% # Run time stat forwork_item_type0 (Unspecified)
system.work_item_type0::3.43597e+11-3.77957e+11            1    100.00%    100.00% # Run time stat forwork_item_type0 (Unspecified)
system.work_item_type0::3.77957e+11-4.12317e+11            0      0.00%    100.00% # Run time stat forwork_item_type0 (Unspecified)
system.work_item_type0::4.12317e+11-4.46677e+11            0      0.00%    100.00% # Run time stat forwork_item_type0 (Unspecified)
system.work_item_type0::4.46677e+11-4.81036e+11            0      0.00%    100.00% # Run time stat forwork_item_type0 (Unspecified)
system.work_item_type0::4.81036e+11-5.15396e+11            0      0.00%    100.00% # Run time stat forwork_item_type0 (Unspecified)
system.work_item_type0::5.15396e+11-5.49756e+11            0      0.00%    100.00% # Run time stat forwork_item_type0 (Unspecified)
system.work_item_type0::5.49756e+11-5.84116e+11            0      0.00%    100.00% # Run time stat forwork_item_type0 (Unspecified)
system.work_item_type0::5.84116e+11-6.18475e+11            0      0.00%    100.00% # Run time stat forwork_item_type0 (Unspecified)
system.work_item_type0::6.18475e+11-6.52835e+11            0      0.00%    100.00% # Run time stat forwork_item_type0 (Unspecified)
system.work_item_type0::6.52835e+11-6.87195e+11            0      0.00%    100.00% # Run time stat forwork_item_type0 (Unspecified)
system.work_item_type0::total                       1                       # Run time stat forwork_item_type0 (Unspecified)
system.clk_domain.clock                          1000                       # Clock period in ticks (Tick)
system.cpu0.numCycles                      2794483191                       # Number of cpu cycles simulated (Cycle)
system.cpu0.numWorkItemsStarted                     1                       # Number of work items this cpu started (Count)
system.cpu0.numWorkItemsCompleted                   1                       # Number of work items this cpu completed (Count)
system.cpu0.clk_domain.clock                      500                       # Clock period in ticks (Tick)
system.cpu0.clk_domain.voltage_domain.voltage            1                       # Voltage in Volts (Volt)
system.cpu0.exec_context.thread_0.numInsts    660794548                       # Number of instructions committed (Count)
system.cpu0.exec_context.thread_0.numOps   1321341547                       # Number of ops (including micro ops) committed (Count)
system.cpu0.exec_context.thread_0.numIntAluAccesses   1275614941                       # Number of integer alu accesses (Count)
system.cpu0.exec_context.thread_0.numFpAluAccesses     19890739                       # Number of float alu accesses (Count)
system.cpu0.exec_context.thread_0.numVecAluAccesses            0                       # Number of vector alu accesses (Count)
system.cpu0.exec_context.thread_0.numCallsReturns     65122544                       # Number of times a function call or return occured (Count)
system.cpu0.exec_context.thread_0.numCondCtrlInsts     99912908                       # Number of instructions that are conditional controls (Count)
system.cpu0.exec_context.thread_0.numIntInsts   1275614941                       # Number of integer instructions (Count)
system.cpu0.exec_context.thread_0.numFpInsts     19890739                       # Number of float instructions (Count)
system.cpu0.exec_context.thread_0.numVecInsts            0                       # Number of vector instructions (Count)
system.cpu0.exec_context.thread_0.numIntRegReads   1465240476                       # Number of times the integer registers were read (Count)
system.cpu0.exec_context.thread_0.numIntRegWrites    868537479                       # Number of times the integer registers were written (Count)
system.cpu0.exec_context.thread_0.numFpRegReads     20227039                       # Number of times the floating registers were read (Count)
system.cpu0.exec_context.thread_0.numFpRegWrites     12503521                       # Number of times the floating registers were written (Count)
system.cpu0.exec_context.thread_0.numVecRegReads            0                       # Number of times the vector registers were read (Count)
system.cpu0.exec_context.thread_0.numVecRegWrites            0                       # Number of times the vector registers were written (Count)
system.cpu0.exec_context.thread_0.numVecPredRegReads            0                       # Number of times the predicate registers were read (Count)
system.cpu0.exec_context.thread_0.numVecPredRegWrites            0                       # Number of times the predicate registers were written (Count)
system.cpu0.exec_context.thread_0.numCCRegReads    631941415                       # Number of times the CC registers were read (Count)
system.cpu0.exec_context.thread_0.numCCRegWrites    292581664                       # Number of times the CC registers were written (Count)
system.cpu0.exec_context.thread_0.numMiscRegReads    650507932                       # Number of times the Misc registers were read (Count)
system.cpu0.exec_context.thread_0.numMiscRegWrites         4951                       # Number of times the Misc registers were written (Count)
system.cpu0.exec_context.thread_0.numMemRefs    267050309                       # Number of memory refs (Count)
system.cpu0.exec_context.thread_0.numLoadInsts    171797955                       # Number of load instructions (Count)
system.cpu0.exec_context.thread_0.numStoreInsts     95252354                       # Number of store instructions (Count)
system.cpu0.exec_context.thread_0.numIdleCycles 8417887.001994                       # Number of idle cycles (Cycle)
system.cpu0.exec_context.thread_0.numBusyCycles 2786065303.998006                       # Number of busy cycles (Cycle)
system.cpu0.exec_context.thread_0.notIdleFraction     0.996988                       # Percentage of non-idle cycles (Ratio)
system.cpu0.exec_context.thread_0.idleFraction     0.003012                       # Percentage of idle cycles (Ratio)
system.cpu0.exec_context.thread_0.numBranches    206541640                       # Number of branches fetched (Count)
system.cpu0.exec_context.thread_0.statExecutedInstType::No_OpClass     37990005      2.84%      2.84% # Class of executed instruction. (Count)
system.cpu0.exec_context.thread_0.statExecutedInstType::IntAlu   1023588827     76.51%     79.35% # Class of executed instruction. (Count)
system.cpu0.exec_context.thread_0.statExecutedInstType::IntMult      1233728      0.09%     79.44% # Class of executed instruction. (Count)
system.cpu0.exec_context.thread_0.statExecutedInstType::IntDiv       235119      0.02%     79.46% # Class of executed instruction. (Count)
system.cpu0.exec_context.thread_0.statExecutedInstType::FloatAdd      1828150      0.14%     79.59% # Class of executed instruction. (Count)
system.cpu0.exec_context.thread_0.statExecutedInstType::FloatCmp           87      0.00%     79.59% # Class of executed instruction. (Count)
system.cpu0.exec_context.thread_0.statExecutedInstType::FloatCvt         7210      0.00%     79.59% # Class of executed instruction. (Count)
system.cpu0.exec_context.thread_0.statExecutedInstType::FloatMult           29      0.00%     79.59% # Class of executed instruction. (Count)
system.cpu0.exec_context.thread_0.statExecutedInstType::FloatMultAcc            0      0.00%     79.59% # Class of executed instruction. (Count)
system.cpu0.exec_context.thread_0.statExecutedInstType::FloatDiv           29      0.00%     79.59% # Class of executed instruction. (Count)
system.cpu0.exec_context.thread_0.statExecutedInstType::FloatMisc            0      0.00%     79.59% # Class of executed instruction. (Count)
system.cpu0.exec_context.thread_0.statExecutedInstType::FloatSqrt            0      0.00%     79.59% # Class of executed instruction. (Count)
system.cpu0.exec_context.thread_0.statExecutedInstType::SimdAdd        23430      0.00%     79.59% # Class of executed instruction. (Count)
system.cpu0.exec_context.thread_0.statExecutedInstType::SimdAddAcc            0      0.00%     79.59% # Class of executed instruction. (Count)
system.cpu0.exec_context.thread_0.statExecutedInstType::SimdAlu       940125      0.07%     79.67% # Class of executed instruction. (Count)
system.cpu0.exec_context.thread_0.statExecutedInstType::SimdCmp         3090      0.00%     79.67% # Class of executed instruction. (Count)
system.cpu0.exec_context.thread_0.statExecutedInstType::SimdCvt       665838      0.05%     79.72% # Class of executed instruction. (Count)
system.cpu0.exec_context.thread_0.statExecutedInstType::SimdMisc      3495066      0.26%     79.98% # Class of executed instruction. (Count)
system.cpu0.exec_context.thread_0.statExecutedInstType::SimdMult            0      0.00%     79.98% # Class of executed instruction. (Count)
system.cpu0.exec_context.thread_0.statExecutedInstType::SimdMultAcc            0      0.00%     79.98% # Class of executed instruction. (Count)
system.cpu0.exec_context.thread_0.statExecutedInstType::SimdShift         9096      0.00%     79.98% # Class of executed instruction. (Count)
system.cpu0.exec_context.thread_0.statExecutedInstType::SimdShiftAcc            0      0.00%     79.98% # Class of executed instruction. (Count)
system.cpu0.exec_context.thread_0.statExecutedInstType::SimdDiv            0      0.00%     79.98% # Class of executed instruction. (Count)
system.cpu0.exec_context.thread_0.statExecutedInstType::SimdSqrt            0      0.00%     79.98% # Class of executed instruction. (Count)
system.cpu0.exec_context.thread_0.statExecutedInstType::SimdFloatAdd        92611      0.01%     79.98% # Class of executed instruction. (Count)
system.cpu0.exec_context.thread_0.statExecutedInstType::SimdFloatAlu            0      0.00%     79.98% # Class of executed instruction. (Count)
system.cpu0.exec_context.thread_0.statExecutedInstType::SimdFloatCmp            0      0.00%     79.98% # Class of executed instruction. (Count)
system.cpu0.exec_context.thread_0.statExecutedInstType::SimdFloatCvt       558799      0.04%     80.03% # Class of executed instruction. (Count)
system.cpu0.exec_context.thread_0.statExecutedInstType::SimdFloatDiv            5      0.00%     80.03% # Class of executed instruction. (Count)
system.cpu0.exec_context.thread_0.statExecutedInstType::SimdFloatMisc            0      0.00%     80.03% # Class of executed instruction. (Count)
system.cpu0.exec_context.thread_0.statExecutedInstType::SimdFloatMult       185247      0.01%     80.04% # Class of executed instruction. (Count)
system.cpu0.exec_context.thread_0.statExecutedInstType::SimdFloatMultAcc            0      0.00%     80.04% # Class of executed instruction. (Count)
system.cpu0.exec_context.thread_0.statExecutedInstType::SimdFloatSqrt            0      0.00%     80.04% # Class of executed instruction. (Count)
system.cpu0.exec_context.thread_0.statExecutedInstType::SimdReduceAdd            0      0.00%     80.04% # Class of executed instruction. (Count)
system.cpu0.exec_context.thread_0.statExecutedInstType::SimdReduceAlu            0      0.00%     80.04% # Class of executed instruction. (Count)
system.cpu0.exec_context.thread_0.statExecutedInstType::SimdReduceCmp            0      0.00%     80.04% # Class of executed instruction. (Count)
system.cpu0.exec_context.thread_0.statExecutedInstType::SimdFloatReduceAdd            0      0.00%     80.04% # Class of executed instruction. (Count)
system.cpu0.exec_context.thread_0.statExecutedInstType::SimdFloatReduceCmp            0      0.00%     80.04% # Class of executed instruction. (Count)
system.cpu0.exec_context.thread_0.statExecutedInstType::SimdAes            0      0.00%     80.04% # Class of executed instruction. (Count)
system.cpu0.exec_context.thread_0.statExecutedInstType::SimdAesMix            0      0.00%     80.04% # Class of executed instruction. (Count)
system.cpu0.exec_context.thread_0.statExecutedInstType::SimdSha1Hash            0      0.00%     80.04% # Class of executed instruction. (Count)
system.cpu0.exec_context.thread_0.statExecutedInstType::SimdSha1Hash2            0      0.00%     80.04% # Class of executed instruction. (Count)
system.cpu0.exec_context.thread_0.statExecutedInstType::SimdSha256Hash            0      0.00%     80.04% # Class of executed instruction. (Count)
system.cpu0.exec_context.thread_0.statExecutedInstType::SimdSha256Hash2            0      0.00%     80.04% # Class of executed instruction. (Count)
system.cpu0.exec_context.thread_0.statExecutedInstType::SimdShaSigma2            0      0.00%     80.04% # Class of executed instruction. (Count)
system.cpu0.exec_context.thread_0.statExecutedInstType::SimdShaSigma3            0      0.00%     80.04% # Class of executed instruction. (Count)
system.cpu0.exec_context.thread_0.statExecutedInstType::SimdPredAlu            0      0.00%     80.04% # Class of executed instruction. (Count)
system.cpu0.exec_context.thread_0.statExecutedInstType::MemRead    167225485     12.50%     92.54% # Class of executed instruction. (Count)
system.cpu0.exec_context.thread_0.statExecutedInstType::MemWrite     88887126      6.64%     99.18% # Class of executed instruction. (Count)
system.cpu0.exec_context.thread_0.statExecutedInstType::FloatMemRead      4572470      0.34%     99.52% # Class of executed instruction. (Count)
system.cpu0.exec_context.thread_0.statExecutedInstType::FloatMemWrite      6365228      0.48%    100.00% # Class of executed instruction. (Count)
system.cpu0.exec_context.thread_0.statExecutedInstType::IprAccess            0      0.00%    100.00% # Class of executed instruction. (Count)
system.cpu0.exec_context.thread_0.statExecutedInstType::InstPrefetch            0      0.00%    100.00% # Class of executed instruction. (Count)
system.cpu0.exec_context.thread_0.statExecutedInstType::total   1337906800                       # Class of executed instruction. (Count)
system.cpu0.interrupts.clk_domain.clock          8000                       # Clock period in ticks (Tick)
system.cpu0.mmu.dtb.rdAccesses              172419590                       # TLB accesses on read requests (Count)
system.cpu0.mmu.dtb.wrAccesses               95481664                       # TLB accesses on write requests (Count)
system.cpu0.mmu.dtb.rdMisses                    27972                       # TLB misses on read requests (Count)
system.cpu0.mmu.dtb.wrMisses                    17869                       # TLB misses on write requests (Count)
system.cpu0.mmu.dtb.walker.power_state.pwrStateResidencyTicks::UNDEFINED 1397241595500                       # Cumulative time (in ticks) in various power states (Tick)
system.cpu0.mmu.itb.rdAccesses                      0                       # TLB accesses on read requests (Count)
system.cpu0.mmu.itb.wrAccesses              874934221                       # TLB accesses on write requests (Count)
system.cpu0.mmu.itb.rdMisses                        0                       # TLB misses on read requests (Count)
system.cpu0.mmu.itb.wrMisses                    11168                       # TLB misses on write requests (Count)
system.cpu0.mmu.itb.walker.power_state.pwrStateResidencyTicks::UNDEFINED 1397241595500                       # Cumulative time (in ticks) in various power states (Tick)
system.cpu0.power_state.numTransitions             48                       # Number of power state transitions (Count)
system.cpu0.power_state.ticksClkGated::samples           24                       # Distribution of time spent in the clock gated state (Tick)
system.cpu0.power_state.ticksClkGated::mean 175372645.833333                       # Distribution of time spent in the clock gated state (Tick)
system.cpu0.power_state.ticksClkGated::stdev 831553355.905648                       # Distribution of time spent in the clock gated state (Tick)
system.cpu0.power_state.ticksClkGated::1000-5e+10           24    100.00%    100.00% # Distribution of time spent in the clock gated state (Tick)
system.cpu0.power_state.ticksClkGated::min_value       125500                       # Distribution of time spent in the clock gated state (Tick)
system.cpu0.power_state.ticksClkGated::max_value   4078607500                       # Distribution of time spent in the clock gated state (Tick)
system.cpu0.power_state.ticksClkGated::total           24                       # Distribution of time spent in the clock gated state (Tick)
system.cpu0.power_state.pwrStateResidencyTicks::ON 1393032652000                       # Cumulative time (in ticks) in various power states (Tick)
system.cpu0.power_state.pwrStateResidencyTicks::CLK_GATED   4208943500                       # Cumulative time (in ticks) in various power states (Tick)
system.cpu0.thread_0.numInsts                       0                       # Number of Instructions committed (Count)
system.cpu0.thread_0.numOps                         0                       # Number of Ops committed (Count)
system.cpu0.thread_0.numMemRefs                     0                       # Number of Memory References (Count)
system.cpu0.workload.numSyscalls             16559807                       # Number of system calls (Count)
system.cpu0.workload.drivers0.device.dispatcher.numKernelLaunched         1051                       # number of kernel launched (Unspecified)
system.cpu0.workload.drivers0.device.dispatcher.cyclesWaitingForDispatch         3153                       # number of cycles with outstanding wavefronts that are waiting to be dispatched (Unspecified)
system.cpu0.workload.drivers0.device.hsapp.power_state.pwrStateResidencyTicks::UNDEFINED 1397241595500                       # Cumulative time (in ticks) in various power states (Tick)
system.cpu0.workload.drivers0.device.hsapp.walker.power_state.pwrStateResidencyTicks::UNDEFINED 1397241595500                       # Cumulative time (in ticks) in various power states (Tick)
system.cpu0.workload.drivers0.device.power_state.pwrStateResidencyTicks::UNDEFINED 1397241595500                       # Cumulative time (in ticks) in various power states (Tick)
system.cpu0.workload.drivers0.device.walker.power_state.pwrStateResidencyTicks::UNDEFINED 1397241595500                       # Cumulative time (in ticks) in various power states (Tick)
system.cpu1.numCycles                      2029381567                       # Number of cpu cycles simulated (Cycle)
system.cpu1.numWorkItemsStarted                     0                       # Number of work items this cpu started (Count)
system.cpu1.numWorkItemsCompleted                   0                       # Number of work items this cpu completed (Count)
system.cpu1.clk_domain.clock                      500                       # Clock period in ticks (Tick)
system.cpu1.clk_domain.voltage_domain.voltage            1                       # Voltage in Volts (Volt)
system.cpu1.exec_context.thread_0.numInsts       346026                       # Number of instructions committed (Count)
system.cpu1.exec_context.thread_0.numOps       644428                       # Number of ops (including micro ops) committed (Count)
system.cpu1.exec_context.thread_0.numIntAluAccesses       620997                       # Number of integer alu accesses (Count)
system.cpu1.exec_context.thread_0.numFpAluAccesses        20274                       # Number of float alu accesses (Count)
system.cpu1.exec_context.thread_0.numVecAluAccesses            0                       # Number of vector alu accesses (Count)
system.cpu1.exec_context.thread_0.numCallsReturns        18140                       # Number of times a function call or return occured (Count)
system.cpu1.exec_context.thread_0.numCondCtrlInsts        89494                       # Number of instructions that are conditional controls (Count)
system.cpu1.exec_context.thread_0.numIntInsts       620997                       # Number of integer instructions (Count)
system.cpu1.exec_context.thread_0.numFpInsts        20274                       # Number of float instructions (Count)
system.cpu1.exec_context.thread_0.numVecInsts            0                       # Number of vector instructions (Count)
system.cpu1.exec_context.thread_0.numIntRegReads       676537                       # Number of times the integer registers were read (Count)
system.cpu1.exec_context.thread_0.numIntRegWrites       403733                       # Number of times the integer registers were written (Count)
system.cpu1.exec_context.thread_0.numFpRegReads        24400                       # Number of times the floating registers were read (Count)
system.cpu1.exec_context.thread_0.numFpRegWrites        17016                       # Number of times the floating registers were written (Count)
system.cpu1.exec_context.thread_0.numVecRegReads            0                       # Number of times the vector registers were read (Count)
system.cpu1.exec_context.thread_0.numVecRegWrites            0                       # Number of times the vector registers were written (Count)
system.cpu1.exec_context.thread_0.numVecPredRegReads            0                       # Number of times the predicate registers were read (Count)
system.cpu1.exec_context.thread_0.numVecPredRegWrites            0                       # Number of times the predicate registers were written (Count)
system.cpu1.exec_context.thread_0.numCCRegReads       547069                       # Number of times the CC registers were read (Count)
system.cpu1.exec_context.thread_0.numCCRegWrites       187528                       # Number of times the CC registers were written (Count)
system.cpu1.exec_context.thread_0.numMiscRegReads       374568                       # Number of times the Misc registers were read (Count)
system.cpu1.exec_context.thread_0.numMiscRegWrites           27                       # Number of times the Misc registers were written (Count)
system.cpu1.exec_context.thread_0.numMemRefs       158883                       # Number of memory refs (Count)
system.cpu1.exec_context.thread_0.numLoadInsts       144124                       # Number of load instructions (Count)
system.cpu1.exec_context.thread_0.numStoreInsts        14759                       # Number of store instructions (Count)
system.cpu1.exec_context.thread_0.numIdleCycles 2028410536.392628                       # Number of idle cycles (Cycle)
system.cpu1.exec_context.thread_0.numBusyCycles 971030.607372                       # Number of busy cycles (Cycle)
system.cpu1.exec_context.thread_0.notIdleFraction     0.000478                       # Percentage of non-idle cycles (Ratio)
system.cpu1.exec_context.thread_0.idleFraction     0.999522                       # Percentage of idle cycles (Ratio)
system.cpu1.exec_context.thread_0.numBranches       110321                       # Number of branches fetched (Count)
system.cpu1.exec_context.thread_0.statExecutedInstType::No_OpClass        10545      1.64%      1.64% # Class of executed instruction. (Count)
system.cpu1.exec_context.thread_0.statExecutedInstType::IntAlu       460867     71.51%     73.15% # Class of executed instruction. (Count)
system.cpu1.exec_context.thread_0.statExecutedInstType::IntMult            3      0.00%     73.15% # Class of executed instruction. (Count)
system.cpu1.exec_context.thread_0.statExecutedInstType::IntDiv           75      0.01%     73.16% # Class of executed instruction. (Count)
system.cpu1.exec_context.thread_0.statExecutedInstType::FloatAdd         2868      0.45%     73.61% # Class of executed instruction. (Count)
system.cpu1.exec_context.thread_0.statExecutedInstType::FloatCmp            0      0.00%     73.61% # Class of executed instruction. (Count)
system.cpu1.exec_context.thread_0.statExecutedInstType::FloatCvt           48      0.01%     73.62% # Class of executed instruction. (Count)
system.cpu1.exec_context.thread_0.statExecutedInstType::FloatMult            0      0.00%     73.62% # Class of executed instruction. (Count)
system.cpu1.exec_context.thread_0.statExecutedInstType::FloatMultAcc            0      0.00%     73.62% # Class of executed instruction. (Count)
system.cpu1.exec_context.thread_0.statExecutedInstType::FloatDiv            0      0.00%     73.62% # Class of executed instruction. (Count)
system.cpu1.exec_context.thread_0.statExecutedInstType::FloatMisc            0      0.00%     73.62% # Class of executed instruction. (Count)
system.cpu1.exec_context.thread_0.statExecutedInstType::FloatSqrt            0      0.00%     73.62% # Class of executed instruction. (Count)
system.cpu1.exec_context.thread_0.statExecutedInstType::SimdAdd           20      0.00%     73.62% # Class of executed instruction. (Count)
system.cpu1.exec_context.thread_0.statExecutedInstType::SimdAddAcc            0      0.00%     73.62% # Class of executed instruction. (Count)
system.cpu1.exec_context.thread_0.statExecutedInstType::SimdAlu         2760      0.43%     74.05% # Class of executed instruction. (Count)
system.cpu1.exec_context.thread_0.statExecutedInstType::SimdCmp            0      0.00%     74.05% # Class of executed instruction. (Count)
system.cpu1.exec_context.thread_0.statExecutedInstType::SimdCvt           40      0.01%     74.05% # Class of executed instruction. (Count)
system.cpu1.exec_context.thread_0.statExecutedInstType::SimdMisc         1545      0.24%     74.29% # Class of executed instruction. (Count)
system.cpu1.exec_context.thread_0.statExecutedInstType::SimdMult            0      0.00%     74.29% # Class of executed instruction. (Count)
system.cpu1.exec_context.thread_0.statExecutedInstType::SimdMultAcc            0      0.00%     74.29% # Class of executed instruction. (Count)
system.cpu1.exec_context.thread_0.statExecutedInstType::SimdShift           21      0.00%     74.30% # Class of executed instruction. (Count)
system.cpu1.exec_context.thread_0.statExecutedInstType::SimdShiftAcc            0      0.00%     74.30% # Class of executed instruction. (Count)
system.cpu1.exec_context.thread_0.statExecutedInstType::SimdDiv            0      0.00%     74.30% # Class of executed instruction. (Count)
system.cpu1.exec_context.thread_0.statExecutedInstType::SimdSqrt            0      0.00%     74.30% # Class of executed instruction. (Count)
system.cpu1.exec_context.thread_0.statExecutedInstType::SimdFloatAdd         1352      0.21%     74.51% # Class of executed instruction. (Count)
system.cpu1.exec_context.thread_0.statExecutedInstType::SimdFloatAlu            0      0.00%     74.51% # Class of executed instruction. (Count)
system.cpu1.exec_context.thread_0.statExecutedInstType::SimdFloatCmp            0      0.00%     74.51% # Class of executed instruction. (Count)
system.cpu1.exec_context.thread_0.statExecutedInstType::SimdFloatCvt         4050      0.63%     75.13% # Class of executed instruction. (Count)
system.cpu1.exec_context.thread_0.statExecutedInstType::SimdFloatDiv            7      0.00%     75.14% # Class of executed instruction. (Count)
system.cpu1.exec_context.thread_0.statExecutedInstType::SimdFloatMisc            0      0.00%     75.14% # Class of executed instruction. (Count)
system.cpu1.exec_context.thread_0.statExecutedInstType::SimdFloatMult         1353      0.21%     75.35% # Class of executed instruction. (Count)
system.cpu1.exec_context.thread_0.statExecutedInstType::SimdFloatMultAcc            0      0.00%     75.35% # Class of executed instruction. (Count)
system.cpu1.exec_context.thread_0.statExecutedInstType::SimdFloatSqrt            0      0.00%     75.35% # Class of executed instruction. (Count)
system.cpu1.exec_context.thread_0.statExecutedInstType::SimdReduceAdd            0      0.00%     75.35% # Class of executed instruction. (Count)
system.cpu1.exec_context.thread_0.statExecutedInstType::SimdReduceAlu            0      0.00%     75.35% # Class of executed instruction. (Count)
system.cpu1.exec_context.thread_0.statExecutedInstType::SimdReduceCmp            0      0.00%     75.35% # Class of executed instruction. (Count)
system.cpu1.exec_context.thread_0.statExecutedInstType::SimdFloatReduceAdd            0      0.00%     75.35% # Class of executed instruction. (Count)
system.cpu1.exec_context.thread_0.statExecutedInstType::SimdFloatReduceCmp            0      0.00%     75.35% # Class of executed instruction. (Count)
system.cpu1.exec_context.thread_0.statExecutedInstType::SimdAes            0      0.00%     75.35% # Class of executed instruction. (Count)
system.cpu1.exec_context.thread_0.statExecutedInstType::SimdAesMix            0      0.00%     75.35% # Class of executed instruction. (Count)
system.cpu1.exec_context.thread_0.statExecutedInstType::SimdSha1Hash            0      0.00%     75.35% # Class of executed instruction. (Count)
system.cpu1.exec_context.thread_0.statExecutedInstType::SimdSha1Hash2            0      0.00%     75.35% # Class of executed instruction. (Count)
system.cpu1.exec_context.thread_0.statExecutedInstType::SimdSha256Hash            0      0.00%     75.35% # Class of executed instruction. (Count)
system.cpu1.exec_context.thread_0.statExecutedInstType::SimdSha256Hash2            0      0.00%     75.35% # Class of executed instruction. (Count)
system.cpu1.exec_context.thread_0.statExecutedInstType::SimdShaSigma2            0      0.00%     75.35% # Class of executed instruction. (Count)
system.cpu1.exec_context.thread_0.statExecutedInstType::SimdShaSigma3            0      0.00%     75.35% # Class of executed instruction. (Count)
system.cpu1.exec_context.thread_0.statExecutedInstType::SimdPredAlu            0      0.00%     75.35% # Class of executed instruction. (Count)
system.cpu1.exec_context.thread_0.statExecutedInstType::MemRead       138565     21.50%     96.85% # Class of executed instruction. (Count)
system.cpu1.exec_context.thread_0.statExecutedInstType::MemWrite        14262      2.21%     99.06% # Class of executed instruction. (Count)
system.cpu1.exec_context.thread_0.statExecutedInstType::FloatMemRead         5559      0.86%     99.92% # Class of executed instruction. (Count)
system.cpu1.exec_context.thread_0.statExecutedInstType::FloatMemWrite          497      0.08%    100.00% # Class of executed instruction. (Count)
system.cpu1.exec_context.thread_0.statExecutedInstType::IprAccess            0      0.00%    100.00% # Class of executed instruction. (Count)
system.cpu1.exec_context.thread_0.statExecutedInstType::InstPrefetch            0      0.00%    100.00% # Class of executed instruction. (Count)
system.cpu1.exec_context.thread_0.statExecutedInstType::total       644437                       # Class of executed instruction. (Count)
system.cpu1.interrupts.clk_domain.clock          8000                       # Clock period in ticks (Tick)
system.cpu1.mmu.dtb.rdAccesses                 144124                       # TLB accesses on read requests (Count)
system.cpu1.mmu.dtb.wrAccesses                  14759                       # TLB accesses on write requests (Count)
system.cpu1.mmu.dtb.rdMisses                      153                       # TLB misses on read requests (Count)
system.cpu1.mmu.dtb.wrMisses                        3                       # TLB misses on write requests (Count)
system.cpu1.mmu.dtb.walker.power_state.pwrStateResidencyTicks::UNDEFINED 1397241595500                       # Cumulative time (in ticks) in various power states (Tick)
system.cpu1.mmu.itb.rdAccesses                      0                       # TLB accesses on read requests (Count)
system.cpu1.mmu.itb.wrAccesses                 457086                       # TLB accesses on write requests (Count)
system.cpu1.mmu.itb.rdMisses                        0                       # TLB misses on read requests (Count)
system.cpu1.mmu.itb.wrMisses                      128                       # TLB misses on write requests (Count)
system.cpu1.mmu.itb.walker.power_state.pwrStateResidencyTicks::UNDEFINED 1397241595500                       # Cumulative time (in ticks) in various power states (Tick)
system.cpu1.power_state.numTransitions              3                       # Number of power state transitions (Count)
system.cpu1.power_state.ticksClkGated::samples            2                       # Distribution of time spent in the clock gated state (Tick)
system.cpu1.power_state.ticksClkGated::mean 192311368000                       # Distribution of time spent in the clock gated state (Tick)
system.cpu1.power_state.ticksClkGated::stdev 269039201803.116913                       # Distribution of time spent in the clock gated state (Tick)
system.cpu1.power_state.ticksClkGated::1000-5e+10            1     50.00%     50.00% # Distribution of time spent in the clock gated state (Tick)
system.cpu1.power_state.ticksClkGated::3.5e+11-4e+11            1     50.00%    100.00% # Distribution of time spent in the clock gated state (Tick)
system.cpu1.power_state.ticksClkGated::min_value   2071924000                       # Distribution of time spent in the clock gated state (Tick)
system.cpu1.power_state.ticksClkGated::max_value 382550812000                       # Distribution of time spent in the clock gated state (Tick)
system.cpu1.power_state.ticksClkGated::total            2                       # Distribution of time spent in the clock gated state (Tick)
system.cpu1.power_state.pwrStateResidencyTicks::ON 1012618859500                       # Cumulative time (in ticks) in various power states (Tick)
system.cpu1.power_state.pwrStateResidencyTicks::CLK_GATED 384622736000                       # Cumulative time (in ticks) in various power states (Tick)
system.cpu1.thread_0.numInsts                       0                       # Number of Instructions committed (Count)
system.cpu1.thread_0.numOps                         0                       # Number of Ops committed (Count)
system.cpu1.thread_0.numMemRefs                     0                       # Number of Memory References (Count)
system.cpu2.numCycles                      2773774860                       # Number of cpu cycles simulated (Cycle)
system.cpu2.numWorkItemsStarted                     0                       # Number of work items this cpu started (Count)
system.cpu2.numWorkItemsCompleted                   0                       # Number of work items this cpu completed (Count)
system.cpu2.clk_domain.clock                      500                       # Clock period in ticks (Tick)
system.cpu2.clk_domain.voltage_domain.voltage            1                       # Voltage in Volts (Volt)
system.cpu2.exec_context.thread_0.numInsts     79430561                       # Number of instructions committed (Count)
system.cpu2.exec_context.thread_0.numOps    154903565                       # Number of ops (including micro ops) committed (Count)
system.cpu2.exec_context.thread_0.numIntAluAccesses    130918791                       # Number of integer alu accesses (Count)
system.cpu2.exec_context.thread_0.numFpAluAccesses     36396097                       # Number of float alu accesses (Count)
system.cpu2.exec_context.thread_0.numVecAluAccesses            0                       # Number of vector alu accesses (Count)
system.cpu2.exec_context.thread_0.numCallsReturns       471528                       # Number of times a function call or return occured (Count)
system.cpu2.exec_context.thread_0.numCondCtrlInsts     16931692                       # Number of instructions that are conditional controls (Count)
system.cpu2.exec_context.thread_0.numIntInsts    130918791                       # Number of integer instructions (Count)
system.cpu2.exec_context.thread_0.numFpInsts     36396097                       # Number of float instructions (Count)
system.cpu2.exec_context.thread_0.numVecInsts            0                       # Number of vector instructions (Count)
system.cpu2.exec_context.thread_0.numIntRegReads    138846032                       # Number of times the integer registers were read (Count)
system.cpu2.exec_context.thread_0.numIntRegWrites     84451829                       # Number of times the integer registers were written (Count)
system.cpu2.exec_context.thread_0.numFpRegReads     45394601                       # Number of times the floating registers were read (Count)
system.cpu2.exec_context.thread_0.numFpRegWrites     31242834                       # Number of times the floating registers were written (Count)
system.cpu2.exec_context.thread_0.numVecRegReads            0                       # Number of times the vector registers were read (Count)
system.cpu2.exec_context.thread_0.numVecRegWrites            0                       # Number of times the vector registers were written (Count)
system.cpu2.exec_context.thread_0.numVecPredRegReads            0                       # Number of times the predicate registers were read (Count)
system.cpu2.exec_context.thread_0.numVecPredRegWrites            0                       # Number of times the predicate registers were written (Count)
system.cpu2.exec_context.thread_0.numCCRegReads    134293321                       # Number of times the CC registers were read (Count)
system.cpu2.exec_context.thread_0.numCCRegWrites     46689237                       # Number of times the CC registers were written (Count)
system.cpu2.exec_context.thread_0.numMiscRegReads     69601710                       # Number of times the Misc registers were read (Count)
system.cpu2.exec_context.thread_0.numMiscRegWrites          329                       # Number of times the Misc registers were written (Count)
system.cpu2.exec_context.thread_0.numMemRefs     22342602                       # Number of memory refs (Count)
system.cpu2.exec_context.thread_0.numLoadInsts     20885586                       # Number of load instructions (Count)
system.cpu2.exec_context.thread_0.numStoreInsts      1457016                       # Number of store instructions (Count)
system.cpu2.exec_context.thread_0.numIdleCycles 2453154457.238714                       # Number of idle cycles (Cycle)
system.cpu2.exec_context.thread_0.numBusyCycles 320620402.761286                       # Number of busy cycles (Cycle)
system.cpu2.exec_context.thread_0.notIdleFraction     0.115590                       # Percentage of non-idle cycles (Ratio)
system.cpu2.exec_context.thread_0.idleFraction     0.884410                       # Percentage of idle cycles (Ratio)
system.cpu2.exec_context.thread_0.numBranches     19867090                       # Number of branches fetched (Count)
system.cpu2.exec_context.thread_0.statExecutedInstType::No_OpClass       805503      0.52%      0.52% # Class of executed instruction. (Count)
system.cpu2.exec_context.thread_0.statExecutedInstType::IntAlu    106101175     68.49%     69.01% # Class of executed instruction. (Count)
system.cpu2.exec_context.thread_0.statExecutedInstType::IntMult        13692      0.01%     69.02% # Class of executed instruction. (Count)
system.cpu2.exec_context.thread_0.statExecutedInstType::IntDiv        32493      0.02%     69.04% # Class of executed instruction. (Count)
system.cpu2.exec_context.thread_0.statExecutedInstType::FloatAdd      4401325      2.84%     71.88% # Class of executed instruction. (Count)
system.cpu2.exec_context.thread_0.statExecutedInstType::FloatCmp            3      0.00%     71.88% # Class of executed instruction. (Count)
system.cpu2.exec_context.thread_0.statExecutedInstType::FloatCvt          530      0.00%     71.88% # Class of executed instruction. (Count)
system.cpu2.exec_context.thread_0.statExecutedInstType::FloatMult            1      0.00%     71.88% # Class of executed instruction. (Count)
system.cpu2.exec_context.thread_0.statExecutedInstType::FloatMultAcc            0      0.00%     71.88% # Class of executed instruction. (Count)
system.cpu2.exec_context.thread_0.statExecutedInstType::FloatDiv            1      0.00%     71.88% # Class of executed instruction. (Count)
system.cpu2.exec_context.thread_0.statExecutedInstType::FloatMisc            0      0.00%     71.88% # Class of executed instruction. (Count)
system.cpu2.exec_context.thread_0.statExecutedInstType::FloatSqrt            0      0.00%     71.88% # Class of executed instruction. (Count)
system.cpu2.exec_context.thread_0.statExecutedInstType::SimdAdd          410      0.00%     71.88% # Class of executed instruction. (Count)
system.cpu2.exec_context.thread_0.statExecutedInstType::SimdAddAcc            0      0.00%     71.88% # Class of executed instruction. (Count)
system.cpu2.exec_context.thread_0.statExecutedInstType::SimdAlu      5443140      3.51%     75.40% # Class of executed instruction. (Count)
system.cpu2.exec_context.thread_0.statExecutedInstType::SimdCmp           12      0.00%     75.40% # Class of executed instruction. (Count)
system.cpu2.exec_context.thread_0.statExecutedInstType::SimdCvt          558      0.00%     75.40% # Class of executed instruction. (Count)
system.cpu2.exec_context.thread_0.statExecutedInstType::SimdMisc      2724076      1.76%     77.15% # Class of executed instruction. (Count)
system.cpu2.exec_context.thread_0.statExecutedInstType::SimdMult            0      0.00%     77.15% # Class of executed instruction. (Count)
system.cpu2.exec_context.thread_0.statExecutedInstType::SimdMultAcc            0      0.00%     77.15% # Class of executed instruction. (Count)
system.cpu2.exec_context.thread_0.statExecutedInstType::SimdShift          283      0.00%     77.15% # Class of executed instruction. (Count)
system.cpu2.exec_context.thread_0.statExecutedInstType::SimdShiftAcc            0      0.00%     77.15% # Class of executed instruction. (Count)
system.cpu2.exec_context.thread_0.statExecutedInstType::SimdDiv            0      0.00%     77.15% # Class of executed instruction. (Count)
system.cpu2.exec_context.thread_0.statExecutedInstType::SimdSqrt            0      0.00%     77.15% # Class of executed instruction. (Count)
system.cpu2.exec_context.thread_0.statExecutedInstType::SimdFloatAdd      2711598      1.75%     78.90% # Class of executed instruction. (Count)
system.cpu2.exec_context.thread_0.statExecutedInstType::SimdFloatAlu            0      0.00%     78.90% # Class of executed instruction. (Count)
system.cpu2.exec_context.thread_0.statExecutedInstType::SimdFloatCmp            0      0.00%     78.90% # Class of executed instruction. (Count)
system.cpu2.exec_context.thread_0.statExecutedInstType::SimdFloatCvt      7621641      4.92%     83.82% # Class of executed instruction. (Count)
system.cpu2.exec_context.thread_0.statExecutedInstType::SimdFloatDiv         1948      0.00%     83.83% # Class of executed instruction. (Count)
system.cpu2.exec_context.thread_0.statExecutedInstType::SimdFloatMisc            0      0.00%     83.83% # Class of executed instruction. (Count)
system.cpu2.exec_context.thread_0.statExecutedInstType::SimdFloatMult      2713099      1.75%     85.58% # Class of executed instruction. (Count)
system.cpu2.exec_context.thread_0.statExecutedInstType::SimdFloatMultAcc            0      0.00%     85.58% # Class of executed instruction. (Count)
system.cpu2.exec_context.thread_0.statExecutedInstType::SimdFloatSqrt            0      0.00%     85.58% # Class of executed instruction. (Count)
system.cpu2.exec_context.thread_0.statExecutedInstType::SimdReduceAdd            0      0.00%     85.58% # Class of executed instruction. (Count)
system.cpu2.exec_context.thread_0.statExecutedInstType::SimdReduceAlu            0      0.00%     85.58% # Class of executed instruction. (Count)
system.cpu2.exec_context.thread_0.statExecutedInstType::SimdReduceCmp            0      0.00%     85.58% # Class of executed instruction. (Count)
system.cpu2.exec_context.thread_0.statExecutedInstType::SimdFloatReduceAdd            0      0.00%     85.58% # Class of executed instruction. (Count)
system.cpu2.exec_context.thread_0.statExecutedInstType::SimdFloatReduceCmp            0      0.00%     85.58% # Class of executed instruction. (Count)
system.cpu2.exec_context.thread_0.statExecutedInstType::SimdAes            0      0.00%     85.58% # Class of executed instruction. (Count)
system.cpu2.exec_context.thread_0.statExecutedInstType::SimdAesMix            0      0.00%     85.58% # Class of executed instruction. (Count)
system.cpu2.exec_context.thread_0.statExecutedInstType::SimdSha1Hash            0      0.00%     85.58% # Class of executed instruction. (Count)
system.cpu2.exec_context.thread_0.statExecutedInstType::SimdSha1Hash2            0      0.00%     85.58% # Class of executed instruction. (Count)
system.cpu2.exec_context.thread_0.statExecutedInstType::SimdSha256Hash            0      0.00%     85.58% # Class of executed instruction. (Count)
system.cpu2.exec_context.thread_0.statExecutedInstType::SimdSha256Hash2            0      0.00%     85.58% # Class of executed instruction. (Count)
system.cpu2.exec_context.thread_0.statExecutedInstType::SimdShaSigma2            0      0.00%     85.58% # Class of executed instruction. (Count)
system.cpu2.exec_context.thread_0.statExecutedInstType::SimdShaSigma3            0      0.00%     85.58% # Class of executed instruction. (Count)
system.cpu2.exec_context.thread_0.statExecutedInstType::SimdPredAlu            0      0.00%     85.58% # Class of executed instruction. (Count)
system.cpu2.exec_context.thread_0.statExecutedInstType::MemRead     10359156      6.69%     92.26% # Class of executed instruction. (Count)
system.cpu2.exec_context.thread_0.statExecutedInstType::MemWrite      1211784      0.78%     93.05% # Class of executed instruction. (Count)
system.cpu2.exec_context.thread_0.statExecutedInstType::FloatMemRead     10526430      6.80%     99.84% # Class of executed instruction. (Count)
system.cpu2.exec_context.thread_0.statExecutedInstType::FloatMemWrite       245232      0.16%    100.00% # Class of executed instruction. (Count)
system.cpu2.exec_context.thread_0.statExecutedInstType::IprAccess            0      0.00%    100.00% # Class of executed instruction. (Count)
system.cpu2.exec_context.thread_0.statExecutedInstType::InstPrefetch            0      0.00%    100.00% # Class of executed instruction. (Count)
system.cpu2.exec_context.thread_0.statExecutedInstType::total    154914090                       # Class of executed instruction. (Count)
system.cpu2.interrupts.clk_domain.clock          8000                       # Clock period in ticks (Tick)
system.cpu2.mmu.dtb.rdAccesses               20885617                       # TLB accesses on read requests (Count)
system.cpu2.mmu.dtb.wrAccesses                1457281                       # TLB accesses on write requests (Count)
system.cpu2.mmu.dtb.rdMisses                     1548                       # TLB misses on read requests (Count)
system.cpu2.mmu.dtb.wrMisses                      589                       # TLB misses on write requests (Count)
system.cpu2.mmu.dtb.walker.power_state.pwrStateResidencyTicks::UNDEFINED 1397241595500                       # Cumulative time (in ticks) in various power states (Tick)
system.cpu2.mmu.itb.rdAccesses                      0                       # TLB accesses on read requests (Count)
system.cpu2.mmu.itb.wrAccesses              112161050                       # TLB accesses on write requests (Count)
system.cpu2.mmu.itb.rdMisses                        0                       # TLB misses on read requests (Count)
system.cpu2.mmu.itb.wrMisses                     8839                       # TLB misses on write requests (Count)
system.cpu2.mmu.itb.walker.power_state.pwrStateResidencyTicks::UNDEFINED 1397241595500                       # Cumulative time (in ticks) in various power states (Tick)
system.cpu2.power_state.numTransitions           3021                       # Number of power state transitions (Count)
system.cpu2.power_state.ticksClkGated::samples         1511                       # Distribution of time spent in the clock gated state (Tick)
system.cpu2.power_state.ticksClkGated::mean 147265358.702846                       # Distribution of time spent in the clock gated state (Tick)
system.cpu2.power_state.ticksClkGated::stdev 436068441.226676                       # Distribution of time spent in the clock gated state (Tick)
system.cpu2.power_state.ticksClkGated::1000-5e+10         1511    100.00%    100.00% # Distribution of time spent in the clock gated state (Tick)
system.cpu2.power_state.ticksClkGated::min_value       362000                       # Distribution of time spent in the clock gated state (Tick)
system.cpu2.power_state.ticksClkGated::max_value  10354165500                       # Distribution of time spent in the clock gated state (Tick)
system.cpu2.power_state.ticksClkGated::total         1511                       # Distribution of time spent in the clock gated state (Tick)
system.cpu2.power_state.pwrStateResidencyTicks::ON 1174723638500                       # Cumulative time (in ticks) in various power states (Tick)
system.cpu2.power_state.pwrStateResidencyTicks::CLK_GATED 222517957000                       # Cumulative time (in ticks) in various power states (Tick)
system.cpu2.thread_0.numInsts                       0                       # Number of Instructions committed (Count)
system.cpu2.thread_0.numOps                         0                       # Number of Ops committed (Count)
system.cpu2.thread_0.numMemRefs                     0                       # Number of Memory References (Count)
system.cpu3.allLatencyDist::bucket_size         10000                       # delay distribution for all (Unspecified)
system.cpu3.allLatencyDist::min_bucket              0                       # delay distribution for all (Unspecified)
system.cpu3.allLatencyDist::max_bucket        1600000                       # delay distribution for all (Unspecified)
system.cpu3.allLatencyDist::samples          10670555                       # delay distribution for all (Unspecified)
system.cpu3.allLatencyDist::mean         503822.210560                       # delay distribution for all (Unspecified)
system.cpu3.allLatencyDist::stdev        435864.765719                       # delay distribution for all (Unspecified)
system.cpu3.allLatencyDist::underflows              0      0.00%      0.00% # delay distribution for all (Unspecified)
system.cpu3.allLatencyDist               |           0      0.00%      0.00% |           0      0.00%      0.00% |           0      0.00%      0.00% |           0      0.00%      0.00% |           0      0.00%      0.00% |           0      0.00%      0.00% |           0      0.00%      0.00% |           0      0.00%      0.00% |           0      0.00%      0.00% |           0      0.00%      0.00% |     1118673     10.48%     10.48% |      194191      1.82%     12.30% |      258711      2.42%     14.73% |      218351      2.05%     16.77% |      154561      1.45%     18.22% |       96144      0.90%     19.12% |       74865      0.70%     19.83% |       72061      0.68%     20.50% |       66562      0.62%     21.12% |       69907      0.66%     21.78% |       66778      0.63%     22.41% |       71703      0.67%     23.08% |       71846      0.67%     23.75% |       60013      0.56%     24.31% |       97972      0.92%     25.23% |       83503      0.78%     26.01% |       72178      0.68%     26.69% |       63110      0.59%     27.28% |       51340      0.48%     27.76% |       52653      0.49%     28.26% |       50991      0.48%     28.73% |       50338      0.47%     29.21% |       49698      0.47%     29.67% |       78315      0.73%     30.41% |      674008      6.32%     36.72% |      399410      3.74%     40.47% |      294210      2.76%     43.22% |      257220      2.41%     45.63% |      230544      2.16%     47.79% |      208985      1.96%     49.75% |      192340      1.80%     51.55% |      180840      1.69%     53.25% |      179866      1.69%     54.94% |      147978      1.39%     56.32% |      138509      1.30%     57.62% |      130505      1.22%     58.84% |      120513      1.13%     59.97% |      112379      1.05%     61.03% |      107021      1.00%     62.03% |      109197      1.02%     63.05% |      104496      0.98%     64.03% |      104474      0.98%     65.01% |       96576      0.91%     65.92% |       97861      0.92%     66.83% |      104595      0.98%     67.81% |      111324      1.04%     68.86% |      112695      1.06%     69.91% |      125468      1.18%     71.09% |      144719      1.36%     72.44% |      133730      1.25%     73.70% |      136087      1.28%     74.97% |      128792      1.21%     76.18% |      118126      1.11%     77.29% |      109134      1.02%     78.31% |      101313      0.95%     79.26% |       74158      0.69%     79.95% |       66292      0.62%     80.58% |       57273      0.54%     81.11% |       53572      0.50%     81.61% |       52488      0.49%     82.11% |       47867      0.45%     82.55% |       49465      0.46%     83.02% |       42142      0.39%     83.41% |       43895      0.41%     83.82% |       40254      0.38%     84.20% |       39074      0.37%     84.57% |       38841      0.36%     84.93% |       42404      0.40%     85.33% |       55664      0.52%     85.85% |       47895      0.45%     86.30% |       43877      0.41%     86.71% |       48471      0.45%     87.17% |       71354      0.67%     87.83% |       71089      0.67%     88.50% |       62112      0.58%     89.08% |       53854      0.50%     89.59% |       50999      0.48%     90.06% |       29517      0.28%     90.34% |       25210      0.24%     90.58% |       22211      0.21%     90.79% |       20527      0.19%     90.98% |       20800      0.19%     91.17% |       16180      0.15%     91.32% |       19293      0.18%     91.51% |       13475      0.13%     91.63% |       13673      0.13%     91.76% |       12120      0.11%     91.87% |       12263      0.11%     91.99% |       12431      0.12%     92.11% |       12930      0.12%     92.23% |       14298      0.13%     92.36% |       12788      0.12%     92.48% |       12894      0.12%     92.60% |       14636      0.14%     92.74% |       19119      0.18%     92.92% |       24713      0.23%     93.15% |       24651      0.23%     93.38% |       20675      0.19%     93.57% |       23810      0.22%     93.80% |       10163      0.10%     93.89% |        9425      0.09%     93.98% |        7921      0.07%     94.05% |        5984      0.06%     94.11% |        5707      0.05%     94.16% |        4845      0.05%     94.21% |        4284      0.04%     94.25% |        3869      0.04%     94.29% |        3855      0.04%     94.32% |        3749      0.04%     94.36% |        3990      0.04%     94.39% |        4260      0.04%     94.43% |        6649      0.06%     94.50% |        6731      0.06%     94.56% |        5306      0.05%     94.61% |        4817      0.05%     94.65% |        8278      0.08%     94.73% |       18455      0.17%     94.91% |       21316      0.20%     95.11% |       21131      0.20%     95.30% |       12330      0.12%     95.42% |       19331      0.18%     95.60% |        5521      0.05%     95.65% |        5342      0.05%     95.70% |        5497      0.05%     95.75% |        3712      0.03%     95.79% |        3507      0.03%     95.82% |        2321      0.02%     95.84% |        2063      0.02%     95.86% |        1573      0.01%     95.88% |        1652      0.02%     95.89% |        1749      0.02%     95.91% |        1958      0.02%     95.93% |        2584      0.02%     95.95% |        2727      0.03%     95.98% |        3528      0.03%     96.01% |        2076      0.02%     96.03% |        1808      0.02%     96.05% |        4984      0.05%     96.09% |       14592      0.14%     96.23% |       14947      0.14%     96.37% |       13677      0.13%     96.50% |        8243      0.08%     96.58% |       13984      0.13%     96.71% |        2819      0.03%     96.73% |        3410      0.03%     96.76% |        3051      0.03%     96.79% |        4375      0.04%     96.83% |        1858      0.02%     96.85% |        1500      0.01%     96.87% |        1053      0.01%     96.88% |          97      0.00%     96.88% # delay distribution for all (Unspecified)
system.cpu3.allLatencyDist::overflows          333318      3.12%    100.00% # delay distribution for all (Unspecified)
system.cpu3.allLatencyDist::min_value          105000                       # delay distribution for all (Unspecified)
system.cpu3.allLatencyDist::max_value         7939000                       # delay distribution for all (Unspecified)
system.cpu3.allLatencyDist::total            10670555                       # delay distribution for all (Unspecified)
system.cpu3.loadLatencyDist::bucket_size        10000                       # delay distribution for loads (Unspecified)
system.cpu3.loadLatencyDist::min_bucket             0                       # delay distribution for loads (Unspecified)
system.cpu3.loadLatencyDist::max_bucket       1600000                       # delay distribution for loads (Unspecified)
system.cpu3.loadLatencyDist::samples          9045428                       # delay distribution for loads (Unspecified)
system.cpu3.loadLatencyDist::mean        477534.101206                       # delay distribution for loads (Unspecified)
system.cpu3.loadLatencyDist::stdev       419475.566477                       # delay distribution for loads (Unspecified)
system.cpu3.loadLatencyDist::underflows             0      0.00%      0.00% # delay distribution for loads (Unspecified)
system.cpu3.loadLatencyDist              |           0      0.00%      0.00% |           0      0.00%      0.00% |           0      0.00%      0.00% |           0      0.00%      0.00% |           0      0.00%      0.00% |           0      0.00%      0.00% |           0      0.00%      0.00% |           0      0.00%      0.00% |           0      0.00%      0.00% |           0      0.00%      0.00% |     1118673     12.37%     12.37% |      194191      2.15%     14.51% |      258711      2.86%     17.37% |      218351      2.41%     19.79% |      154561      1.71%     21.50% |       96144      1.06%     22.56% |       74865      0.83%     23.39% |       72061      0.80%     24.18% |       66562      0.74%     24.92% |       69907      0.77%     25.69% |       66778      0.74%     26.43% |       71703      0.79%     27.22% |       71846      0.79%     28.02% |       60013      0.66%     28.68% |       77013      0.85%     29.53% |       58121      0.64%     30.18% |       65262      0.72%     30.90% |       59166      0.65%     31.55% |       47907      0.53%     32.08% |       49507      0.55%     32.63% |       48179      0.53%     33.16% |       47182      0.52%     33.68% |       46391      0.51%     34.20% |       76062      0.84%     35.04% |      466704      5.16%     40.20% |      303683      3.36%     43.55% |      218913      2.42%     45.97% |      196301      2.17%     48.14% |      178323      1.97%     50.11% |      166597      1.84%     51.96% |      153500      1.70%     53.65% |      146481      1.62%     55.27% |      149333      1.65%     56.92% |      121710      1.35%     58.27% |      115150      1.27%     59.54% |      110335      1.22%     60.76% |      101947      1.13%     61.89% |       95146      1.05%     62.94% |       90655      1.00%     63.94% |       93056      1.03%     64.97% |       89242      0.99%     65.96% |       89106      0.99%     66.94% |       81817      0.90%     67.85% |       82293      0.91%     68.76% |       86977      0.96%     69.72% |       91201      1.01%     70.73% |       91957      1.02%     71.74% |       97711      1.08%     72.82% |      110227      1.22%     74.04% |      105183      1.16%     75.21% |      106086      1.17%     76.38% |      102726      1.14%     77.51% |       95220      1.05%     78.57% |       86902      0.96%     79.53% |       85021      0.94%     80.47% |       62646      0.69%     81.16% |       56932      0.63%     81.79% |       49553      0.55%     82.34% |       46474      0.51%     82.85% |       45575      0.50%     83.36% |       42256      0.47%     83.82% |       42872      0.47%     84.30% |       37378      0.41%     84.71% |       39016      0.43%     85.14% |       35804      0.40%     85.54% |       34581      0.38%     85.92% |       34089      0.38%     86.30% |       35383      0.39%     86.69% |       42280      0.47%     87.15% |       38292      0.42%     87.58% |       35725      0.39%     87.97% |       38077      0.42%     88.39% |       51608      0.57%     88.96% |       54250      0.60%     89.56% |       48994      0.54%     90.11% |       42740      0.47%     90.58% |       44017      0.49%     91.06% |       24782      0.27%     91.34% |       21522      0.24%     91.58% |       18683      0.21%     91.78% |       17059      0.19%     91.97% |       16310      0.18%     92.15% |       13572      0.15%     92.30% |       14906      0.16%     92.47% |       11452      0.13%     92.59% |       11416      0.13%     92.72% |       10153      0.11%     92.83% |       10366      0.11%     92.95% |       10136      0.11%     93.06% |       10314      0.11%     93.17% |       10859      0.12%     93.29% |       10220      0.11%     93.41% |       10260      0.11%     93.52% |       11431      0.13%     93.65% |       13774      0.15%     93.80% |       17363      0.19%     93.99% |       18335      0.20%     94.19% |       15529      0.17%     94.36% |       21013      0.23%     94.60% |        8767      0.10%     94.69% |        8219      0.09%     94.78% |        6558      0.07%     94.86% |        4937      0.05%     94.91% |        4736      0.05%     94.96% |        4044      0.04%     95.01% |        3699      0.04%     95.05% |        3352      0.04%     95.09% |        3365      0.04%     95.12% |        3182      0.04%     95.16% |        3243      0.04%     95.19% |        3412      0.04%     95.23% |        4655      0.05%     95.28% |        4788      0.05%     95.34% |        4052      0.04%     95.38% |        3844      0.04%     95.42% |        5824      0.06%     95.49% |       11475      0.13%     95.62% |       13675      0.15%     95.77% |       14413      0.16%     95.93% |        9097      0.10%     96.03% |       17750      0.20%     96.22% |        4751      0.05%     96.28% |        4744      0.05%     96.33% |        3901      0.04%     96.37% |        2776      0.03%     96.40% |        2514      0.03%     96.43% |        1786      0.02%     96.45% |        1695      0.02%     96.47% |        1307      0.01%     96.48% |        1388      0.02%     96.50% |        1339      0.01%     96.51% |        1397      0.02%     96.53% |        1809      0.02%     96.55% |        1906      0.02%     96.57% |        2353      0.03%     96.59% |        1543      0.02%     96.61% |        1452      0.02%     96.63% |        3240      0.04%     96.66% |        8580      0.09%     96.76% |        9506      0.11%     96.86% |        9479      0.10%     96.97% |        6005      0.07%     97.03% |       13290      0.15%     97.18% |        2410      0.03%     97.21% |        3126      0.03%     97.24% |        2091      0.02%     97.27% |        2613      0.03%     97.29% |        1309      0.01%     97.31% |        1023      0.01%     97.32% |         875      0.01%     97.33% |          78      0.00%     97.33% # delay distribution for loads (Unspecified)
system.cpu3.loadLatencyDist::overflows         241399      2.67%    100.00% # delay distribution for loads (Unspecified)
system.cpu3.loadLatencyDist::min_value         105000                       # delay distribution for loads (Unspecified)
system.cpu3.loadLatencyDist::max_value        7939000                       # delay distribution for loads (Unspecified)
system.cpu3.loadLatencyDist::total            9045428                       # delay distribution for loads (Unspecified)
system.cpu3.storeLatencyDist::bucket_size        10000                       # delay distribution for stores (Unspecified)
system.cpu3.storeLatencyDist::min_bucket            0                       # delay distribution for stores (Unspecified)
system.cpu3.storeLatencyDist::max_bucket      1600000                       # delay distribution for stores (Unspecified)
system.cpu3.storeLatencyDist::samples         1625127                       # delay distribution for stores (Unspecified)
system.cpu3.storeLatencyDist::mean       650141.360029                       # delay distribution for stores (Unspecified)
system.cpu3.storeLatencyDist::stdev      492694.972749                       # delay distribution for stores (Unspecified)
system.cpu3.storeLatencyDist::underflows            0      0.00%      0.00% # delay distribution for stores (Unspecified)
system.cpu3.storeLatencyDist             |           0      0.00%      0.00% |           0      0.00%      0.00% |           0      0.00%      0.00% |           0      0.00%      0.00% |           0      0.00%      0.00% |           0      0.00%      0.00% |           0      0.00%      0.00% |           0      0.00%      0.00% |           0      0.00%      0.00% |           0      0.00%      0.00% |           0      0.00%      0.00% |           0      0.00%      0.00% |           0      0.00%      0.00% |           0      0.00%      0.00% |           0      0.00%      0.00% |           0      0.00%      0.00% |           0      0.00%      0.00% |           0      0.00%      0.00% |           0      0.00%      0.00% |           0      0.00%      0.00% |           0      0.00%      0.00% |           0      0.00%      0.00% |           0      0.00%      0.00% |           0      0.00%      0.00% |       20959      1.29%      1.29% |       25382      1.56%      2.85% |        6916      0.43%      3.28% |        3944      0.24%      3.52% |        3433      0.21%      3.73% |        3146      0.19%      3.92% |        2812      0.17%      4.10% |        3156      0.19%      4.29% |        3307      0.20%      4.50% |        2253      0.14%      4.63% |      207304     12.76%     17.39% |       95727      5.89%     23.28% |       75297      4.63%     27.91% |       60919      3.75%     31.66% |       52221      3.21%     34.88% |       42388      2.61%     37.48% |       38840      2.39%     39.87% |       34359      2.11%     41.99% |       30533      1.88%     43.87% |       26268      1.62%     45.48% |       23359      1.44%     46.92% |       20170      1.24%     48.16% |       18566      1.14%     49.30% |       17233      1.06%     50.36% |       16366      1.01%     51.37% |       16141      0.99%     52.37% |       15254      0.94%     53.30% |       15368      0.95%     54.25% |       14759      0.91%     55.16% |       15568      0.96%     56.12% |       17618      1.08%     57.20% |       20123      1.24%     58.44% |       20738      1.28%     59.71% |       27757      1.71%     61.42% |       34492      2.12%     63.54% |       28547      1.76%     65.30% |       30001      1.85%     67.15% |       26066      1.60%     68.75% |       22906      1.41%     70.16% |       22232      1.37%     71.53% |       16292      1.00%     72.53% |       11512      0.71%     73.24% |        9360      0.58%     73.82% |        7720      0.48%     74.29% |        7098      0.44%     74.73% |        6913      0.43%     75.15% |        5611      0.35%     75.50% |        6593      0.41%     75.90% |        4764      0.29%     76.20% |        4879      0.30%     76.50% |        4450      0.27%     76.77% |        4493      0.28%     77.05% |        4752      0.29%     77.34% |        7021      0.43%     77.77% |       13384      0.82%     78.60% |        9603      0.59%     79.19% |        8152      0.50%     79.69% |       10394      0.64%     80.33% |       19746      1.22%     81.54% |       16839      1.04%     82.58% |       13118      0.81%     83.39% |       11114      0.68%     84.07% |        6982      0.43%     84.50% |        4735      0.29%     84.79% |        3688      0.23%     85.02% |        3528      0.22%     85.23% |        3468      0.21%     85.45% |        4490      0.28%     85.72% |        2608      0.16%     85.88% |        4387      0.27%     86.15% |        2023      0.12%     86.28% |        2257      0.14%     86.42% |        1967      0.12%     86.54% |        1897      0.12%     86.66% |        2295      0.14%     86.80% |        2616      0.16%     86.96% |        3439      0.21%     87.17% |        2568      0.16%     87.33% |        2634      0.16%     87.49% |        3205      0.20%     87.69% |        5345      0.33%     88.02% |        7350      0.45%     88.47% |        6316      0.39%     88.86% |        5146      0.32%     89.17% |        2797      0.17%     89.35% |        1396      0.09%     89.43% |        1206      0.07%     89.51% |        1363      0.08%     89.59% |        1047      0.06%     89.65% |         971      0.06%     89.71% |         801      0.05%     89.76% |         585      0.04%     89.80% |         517      0.03%     89.83% |         490      0.03%     89.86% |         567      0.03%     89.90% |         747      0.05%     89.94% |         848      0.05%     89.99% |        1994      0.12%     90.12% |        1943      0.12%     90.24% |        1254      0.08%     90.31% |         973      0.06%     90.37% |        2454      0.15%     90.52% |        6980      0.43%     90.95% |        7641      0.47%     91.42% |        6718      0.41%     91.84% |        3233      0.20%     92.04% |        1581      0.10%     92.13% |         770      0.05%     92.18% |         598      0.04%     92.22% |        1596      0.10%     92.32% |         936      0.06%     92.37% |         993      0.06%     92.43% |         535      0.03%     92.47% |         368      0.02%     92.49% |         266      0.02%     92.51% |         264      0.02%     92.52% |         410      0.03%     92.55% |         561      0.03%     92.58% |         775      0.05%     92.63% |         821      0.05%     92.68% |        1175      0.07%     92.75% |         533      0.03%     92.79% |         356      0.02%     92.81% |        1744      0.11%     92.92% |        6012      0.37%     93.28% |        5441      0.33%     93.62% |        4198      0.26%     93.88% |        2238      0.14%     94.02% |         694      0.04%     94.06% |         409      0.03%     94.08% |         284      0.02%     94.10% |         960      0.06%     94.16% |        1762      0.11%     94.27% |         549      0.03%     94.30% |         477      0.03%     94.33% |         178      0.01%     94.34% |          19      0.00%     94.34% # delay distribution for stores (Unspecified)
system.cpu3.storeLatencyDist::overflows         91919      5.66%    100.00% # delay distribution for stores (Unspecified)
system.cpu3.storeLatencyDist::min_value        249000                       # delay distribution for stores (Unspecified)
system.cpu3.storeLatencyDist::max_value       4159000                       # delay distribution for stores (Unspecified)
system.cpu3.storeLatencyDist::total           1625127                       # delay distribution for stores (Unspecified)
system.cpu3.initToCoalesceLatency::bucket_size        10000                       # Ticks from vmem inst initiateAcc to coalescer issue (Unspecified)
system.cpu3.initToCoalesceLatency::min_bucket            0                       # Ticks from vmem inst initiateAcc to coalescer issue (Unspecified)
system.cpu3.initToCoalesceLatency::max_bucket      1600000                       # Ticks from vmem inst initiateAcc to coalescer issue (Unspecified)
system.cpu3.initToCoalesceLatency::samples            0                       # Ticks from vmem inst initiateAcc to coalescer issue (Unspecified)
system.cpu3.initToCoalesceLatency::mean           nan                       # Ticks from vmem inst initiateAcc to coalescer issue (Unspecified)
system.cpu3.initToCoalesceLatency::stdev          nan                       # Ticks from vmem inst initiateAcc to coalescer issue (Unspecified)
system.cpu3.initToCoalesceLatency::underflows            0                       # Ticks from vmem inst initiateAcc to coalescer issue (Unspecified)
[...]
system.cpu3.cacheBlockRoundTrip7::overflows            0                       # Coalsr-to-coalsr time for the Nth cache block in an inst (Unspecified)
system.cpu3.cacheBlockRoundTrip7::min_value            0                       # Coalsr-to-coalsr time for the Nth cache block in an inst (Unspecified)
system.cpu3.cacheBlockRoundTrip7::max_value            0                       # Coalsr-to-coalsr time for the Nth cache block in an inst (Unspecified)
system.cpu3.cacheBlockRoundTrip7::total             0                       # Coalsr-to-coalsr time for the Nth cache block in an inst (Unspecified)
system.cpu3.cacheBlockRoundTrip8::bucket_size        10000                       # Coalsr-to-coalsr time for the Nth cache block in an inst (Unspecified)
system.cpu3.cacheBlockRoundTrip8::min_bucket            0                       # Coalsr-to-coalsr time for the Nth cache block in an inst (Unspecified)
system.cpu3.cacheBlockRoundTrip8::max_bucket      1600000                       # Coalsr-to-coalsr time for the Nth cache block in an inst (Unspecified)
system.cpu3.cacheBlockRoundTrip8::samples            0                       # Coalsr-to-coalsr time for the Nth cache block in an inst (Unspecified)
system.cpu3.cacheBlockRoundTrip8::mean            nan                       # Coalsr-to-coalsr time for the Nth cache block in an inst (Unspecified)
system.cpu3.cacheBlockRoundTrip8::stdev           nan                       # Coalsr-to-coalsr time for the Nth cache block in an inst (Unspecified)
system.cpu3.cacheBlockRoundTrip8::underflows            0                       # Coalsr-to-coalsr time for the Nth cache block in an inst (Unspecified)
system.cpu3.cacheBlockRoundTrip8         |           0                       |           0                       |           0                       |           0                       |           0                       |           0                       |           0                       |           0                       |           0                       |           0                       |           0                       |           0                       |           0                       |           0                       |           0                       |           0                       |           0                       |           0                       |           0                       |           0                       |           0                       |           0                       |           0                       |           0                       |           0                       |           0                       |           0                       |           0                       |           0                       |           0                       |           0                       |           0                       |           0                       |           0                       |           0                       |           0                       |           0                       |           0                       |           0                       |           0                       |           0                       |           0                       |           0                       |           0                       |           0                       |           0                       |           0                       |           0                       |           0                       |           0                       |           0                       |           0                       |           0                       |           0                       |           0                       |           0                       |           0                       |           0                       |           0                       |           0                       |           0                       |           0                       |           0                       |           0                       |           0                       |           0                       |           0                       |           0                       |           0                       |           0                       |           0                       |           0                       |           0                       |           0                       |           0                       |           0                       |           0                       |           0                       |           0                       |           0                       |           0                       |           0                       |           0                       |           0                       |           0                       |           0                       |           0                       |           0                       |           0                       |           0                       |           0                       |           0                       |           0                       |           0                       |           0                       |           0                       |           0                       |           0                       |           0                       |           0                       |           0                       |           0                       |           0                       |           0                       |           0                       |           0                       |           0                       |           0                       |           0                       |           0                       |           0                       |           0                       |           0                       |           0                       |           0                       |           0                       |           0                       |           0                       |           0                       |           0                       |           0                       |           0                       |           0                       |           0                       |           0                       |           0                       |           0                       |           0                       |           0                       |           0                       |           0                       |           0                       |           0                       |           0                       |           0                       |           0                       |           0                       |           0                       |           0                       |           0                       |           0                       |           0                       |           0                       |           0                       |           0                       |           0                       |           0                       |           0                       |           0                       |           0                       |           0                       |           0                       |           0                       |           0                       |           0                       |           0                       |           0                       |           0                       |           0                       |           0                       |           0                       # Coalsr-to-coalsr time for the Nth cache block in an inst (Unspecified)
system.cpu3.cacheBlockRoundTrip8::overflows            0                       # Coalsr-to-coalsr time for the Nth cache block in an inst (Unspecified)
system.cpu3.cacheBlockRoundTrip8::min_value            0                       # Coalsr-to-coalsr time for the Nth cache block in an inst (Unspecified)
system.cpu3.cacheBlockRoundTrip8::max_value            0                       # Coalsr-to-coalsr time for the Nth cache block in an inst (Unspecified)
system.cpu3.cacheBlockRoundTrip8::total             0                       # Coalsr-to-coalsr time for the Nth cache block in an inst (Unspecified)
system.cpu3.cacheBlockRoundTrip9::bucket_size        10000                       # Coalsr-to-coalsr time for the Nth cache block in an inst (Unspecified)
system.cpu3.cacheBlockRoundTrip9::min_bucket            0                       # Coalsr-to-coalsr time for the Nth cache block in an inst (Unspecified)
system.cpu3.cacheBlockRoundTrip9::max_bucket      1600000                       # Coalsr-to-coalsr time for the Nth cache block in an inst (Unspecified)
system.cpu3.cacheBlockRoundTrip9::samples            0                       # Coalsr-to-coalsr time for the Nth cache block in an inst (Unspecified)
system.cpu3.cacheBlockRoundTrip9::mean            nan                       # Coalsr-to-coalsr time for the Nth cache block in an inst (Unspecified)
system.cpu3.cacheBlockRoundTrip9::stdev           nan                       # Coalsr-to-coalsr time for the Nth cache block in an inst (Unspecified)
system.cpu3.cacheBlockRoundTrip9::underflows            0                       # Coalsr-to-coalsr time for the Nth cache block in an inst (Unspecified)
system.cpu3.cacheBlockRoundTrip9         |           0                       |           0                       |           0                       |           0                       |           0                       |           0                       |           0                       |           0                       |           0                       |           0                       |           0                       |           0                       |           0                       |           0                       |           0                       |           0                       |           0                       |           0                       |           0                       |           0                       |           0                       |           0                       |           0                       |           0                       |           0                       |           0                       |           0                       |           0                       |           0                       |           0                       |           0                       |           0                       |           0                       |           0                       |           0                       |           0                       |           0                       |           0                       |           0                       |           0                       |           0                       |           0                       |           0                       |           0                       |           0                       |           0                       |           0                       |           0                       |           0                       |           0                       |           0                       |           0                       |           0                       |           0                       |           0                       |           0                       |           0                       |           0                       |           0                       |           0                       |           0                       |           0                       |           0                       |           0                       |           0                       |           0                       |           0                       |           0                       |           0                       |           0                       |           0                       |           0                       |           0                       |           0                       |           0                       |           0                       |           0                       |           0                       |           0                       |           0                       |           0                       |           0                       |           0                       |           0                       |           0                       |           0                       |           0                       |           0                       |           0                       |           0                       |           0                       |           0                       |           0                       |           0                       |           0                       |           0                       |           0                       |           0                       |           0                       |           0                       |           0                       |           0                       |           0                       |           0                       |           0                       |           0                       |           0                       |           0                       |           0                       |           0                       |           0                       |           0                       |           0                       |           0                       |           0                       |           0                       |           0                       |           0                       |           0                       |           0                       |           0                       |           0                       |           0                       |           0                       |           0                       |           0                       |           0                       |           0                       |           0                       |           0                       |           0                       |           0                       |           0                       |           0                       |           0                       |           0                       |           0                       |           0                       |           0                       |           0                       |           0                       |           0                       |           0                       |           0                       |           0                       |           0                       |           0                       |           0                       |           0                       |           0                       |           0                       |           0                       |           0                       |           0                       |           0                       |           0                       |           0                       |           0                       |           0                       |           0                       |           0                       # Coalsr-to-coalsr time for the Nth cache block in an inst (Unspecified)
system.cpu3.cacheBlockRoundTrip9::overflows            0                       # Coalsr-to-coalsr time for the Nth cache block in an inst (Unspecified)
system.cpu3.cacheBlockRoundTrip9::min_value            0                       # Coalsr-to-coalsr time for the Nth cache block in an inst (Unspecified)
system.cpu3.cacheBlockRoundTrip9::max_value            0                       # Coalsr-to-coalsr time for the Nth cache block in an inst (Unspecified)
system.cpu3.cacheBlockRoundTrip9::total             0                       # Coalsr-to-coalsr time for the Nth cache block in an inst (Unspecified)

---------- End Simulation Statistics   ----------
