
---------- Begin Simulation Statistics ----------
simSeconds                                   1.066534                       # Number of seconds simulated (Second)
simTicks                                 1066534074500                       # Number of ticks simulated (Tick)
finalTick                                1066534074500                       # Number of ticks from beginning of simulation (restored from checkpoints and never reset) (Tick)
simFreq                                  1000000000000                       # The number of ticks per simulated second ((Tick/Second))
hostSeconds                                    650.34                       # Real time elapsed on the host (Second)
hostTickRate                               1639955611                       # The number of ticks simulated per host second (ticks/s) ((Tick/Second))
hostMemory                                   19436556                       # Number of bytes of host memory used (Byte)
simInsts                                    418318640                       # Number of instructions simulated (Count)
simOps                                      766042293                       # Number of ops (including micro ops) simulated (Count)
hostInstRate                                   643227                       # Simulator instruction rate (inst/s) ((Count/Second))
hostOpRate                                    1177904                       # Simulator op (including micro ops) rate (op/s) ((Count/Second))
system.work_item_type0::samples                     1                       # Run time stat forwork_item_type0 (Unspecified)
system.work_item_type0::mean              16632690000                       # Run time stat forwork_item_type0 (Unspecified)
system.work_item_type0::gmean            16632689999.999996                       # Run time stat forwork_item_type0 (Unspecified)
system.work_item_type0::stdev                     nan                       # Run time stat forwork_item_type0 (Unspecified)
system.work_item_type0::0-1.07374e+09               0      0.00%      0.00% # Run time stat forwork_item_type0 (Unspecified)
system.work_item_type0::1.07374e+09-2.14748e+09            0      0.00%      0.00% # Run time stat forwork_item_type0 (Unspecified)
system.work_item_type0::2.14748e+09-3.22123e+09            0      0.00%      0.00% # Run time stat forwork_item_type0 (Unspecified)
system.work_item_type0::3.22123e+09-4.29497e+09            0      0.00%      0.00% # Run time stat forwork_item_type0 (Unspecified)
system.work_item_type0::4.29497e+09-5.36871e+09            0      0.00%      0.00% # Run time stat forwork_item_type0 (Unspecified)
system.work_item_type0::5.36871e+09-6.44245e+09            0      0.00%      0.00% # Run time stat forwork_item_type0 (Unspecified)
system.work_item_type0::6.44245e+09-7.51619e+09            0      0.00%      0.00% # Run time stat forwork_item_type0 (Unspecified)
system.work_item_type0::7.51619e+09-8.58993e+09            0      0.00%      0.00% # Run time stat forwork_item_type0 (Unspecified)
system.work_item_type0::8.58993e+09-9.66368e+09            0      0.00%      0.00% # Run time stat forwork_item_type0 (Unspecified)
system.work_item_type0::9.66368e+09-1.07374e+10            0      0.00%      0.00% # Run time stat forwork_item_type0 (Unspecified)
system.work_item_type0::1.07374e+10-1.18112e+10            0      0.00%      0.00% # Run time stat forwork_item_type0 (Unspecified)
system.work_item_type0::1.18112e+10-1.28849e+10            0      0.00%      0.00% # Run time stat forwork_item_type0 (Unspecified)
system.work_item_type0::1.28849e+10-1.39586e+10            0      0.00%      0.00% # Run time stat forwork_item_type0 (Unspecified)
system.work_item_type0::1.39586e+10-1.50324e+10            0      0.00%      0.00% # Run time stat forwork_item_type0 (Unspecified)
system.work_item_type0::1.50324e+10-1.61061e+10            0      0.00%      0.00% # Run time stat forwork_item_type0 (Unspecified)
system.work_item_type0::1.61061e+10-1.71799e+10            1    100.00%    100.00% # Run time stat forwork_item_type0 (Unspecified)
system.work_item_type0::1.71799e+10-1.82536e+10            0      0.00%    100.00% # Run time stat forwork_item_type0 (Unspecified)
system.work_item_type0::1.82536e+10-1.93274e+10            0      0.00%    100.00% # Run time stat forwork_item_type0 (Unspecified)
system.work_item_type0::1.93274e+10-2.04011e+10            0      0.00%    100.00% # Run time stat forwork_item_type0 (Unspecified)
system.work_item_type0::2.04011e+10-2.14748e+10            0      0.00%    100.00% # Run time stat forwork_item_type0 (Unspecified)
system.work_item_type0::total                       1                       # Run time stat forwork_item_type0 (Unspecified)
system.clk_domain.clock                          1000                       # Clock period in ticks (Tick)
system.cpu0.numCycles                      2133068149                       # Number of cpu cycles simulated (Cycle)
system.cpu0.numWorkItemsStarted                     1                       # Number of work items this cpu started (Count)
system.cpu0.numWorkItemsCompleted                   1                       # Number of work items this cpu completed (Count)
system.cpu0.clk_domain.clock                      500                       # Clock period in ticks (Tick)
system.cpu0.clk_domain.voltage_domain.voltage            1                       # Voltage in Volts (Volt)
system.cpu0.exec_context.thread_0.numInsts    415837931                       # Number of instructions committed (Count)
system.cpu0.exec_context.thread_0.numOps    761265262                       # Number of ops (including micro ops) committed (Count)
system.cpu0.exec_context.thread_0.numIntAluAccesses    748205016                       # Number of integer alu accesses (Count)
system.cpu0.exec_context.thread_0.numFpAluAccesses     17867138                       # Number of float alu accesses (Count)
system.cpu0.exec_context.thread_0.numVecAluAccesses            0                       # Number of vector alu accesses (Count)
system.cpu0.exec_context.thread_0.numCallsReturns     16773984                       # Number of times a function call or return occured (Count)
system.cpu0.exec_context.thread_0.numCondCtrlInsts     69076403                       # Number of instructions that are conditional controls (Count)
system.cpu0.exec_context.thread_0.numIntInsts    748205016                       # Number of integer instructions (Count)
system.cpu0.exec_context.thread_0.numFpInsts     17867138                       # Number of float instructions (Count)
system.cpu0.exec_context.thread_0.numVecInsts            0                       # Number of vector instructions (Count)
system.cpu0.exec_context.thread_0.numIntRegReads    927687045                       # Number of times the integer registers were read (Count)
system.cpu0.exec_context.thread_0.numIntRegWrites    514799602                       # Number of times the integer registers were written (Count)
system.cpu0.exec_context.thread_0.numFpRegReads     19057940                       # Number of times the floating registers were read (Count)
system.cpu0.exec_context.thread_0.numFpRegWrites     11456672                       # Number of times the floating registers were written (Count)
system.cpu0.exec_context.thread_0.numVecRegReads            0                       # Number of times the vector registers were read (Count)
system.cpu0.exec_context.thread_0.numVecRegWrites            0                       # Number of times the vector registers were written (Count)
system.cpu0.exec_context.thread_0.numVecPredRegReads            0                       # Number of times the predicate registers were read (Count)
system.cpu0.exec_context.thread_0.numVecPredRegWrites            0                       # Number of times the predicate registers were written (Count)
system.cpu0.exec_context.thread_0.numCCRegReads    469761927                       # Number of times the CC registers were read (Count)
system.cpu0.exec_context.thread_0.numCCRegWrites    231829103                       # Number of times the CC registers were written (Count)
system.cpu0.exec_context.thread_0.numMiscRegReads    355722177                       # Number of times the Misc registers were read (Count)
system.cpu0.exec_context.thread_0.numMiscRegWrites         4891                       # Number of times the Misc registers were written (Count)
system.cpu0.exec_context.thread_0.numMemRefs    173429808                       # Number of memory refs (Count)
system.cpu0.exec_context.thread_0.numLoadInsts    109168924                       # Number of load instructions (Count)
system.cpu0.exec_context.thread_0.numStoreInsts     64260884                       # Number of store instructions (Count)
system.cpu0.exec_context.thread_0.numIdleCycles 8417384.001992                       # Number of idle cycles (Cycle)
system.cpu0.exec_context.thread_0.numBusyCycles 2124650764.998008                       # Number of busy cycles (Cycle)
system.cpu0.exec_context.thread_0.notIdleFraction     0.996054                       # Percentage of non-idle cycles (Ratio)
system.cpu0.exec_context.thread_0.idleFraction     0.003946                       # Percentage of idle cycles (Ratio)
system.cpu0.exec_context.thread_0.numBranches     94013586                       # Number of branches fetched (Count)
system.cpu0.exec_context.thread_0.statExecutedInstType::No_OpClass      5907319      0.78%      0.78% # Class of executed instruction. (Count)
system.cpu0.exec_context.thread_0.statExecutedInstType::IntAlu    573743110     75.29%     76.06% # Class of executed instruction. (Count)
system.cpu0.exec_context.thread_0.statExecutedInstType::IntMult      1224457      0.16%     76.23% # Class of executed instruction. (Count)
system.cpu0.exec_context.thread_0.statExecutedInstType::IntDiv        70034      0.01%     76.23% # Class of executed instruction. (Count)
system.cpu0.exec_context.thread_0.statExecutedInstType::FloatAdd      1785735      0.23%     76.47% # Class of executed instruction. (Count)
system.cpu0.exec_context.thread_0.statExecutedInstType::FloatCmp           78      0.00%     76.47% # Class of executed instruction. (Count)
system.cpu0.exec_context.thread_0.statExecutedInstType::FloatCvt         7268      0.00%     76.47% # Class of executed instruction. (Count)
system.cpu0.exec_context.thread_0.statExecutedInstType::FloatMult           26      0.00%     76.47% # Class of executed instruction. (Count)
system.cpu0.exec_context.thread_0.statExecutedInstType::FloatMultAcc            0      0.00%     76.47% # Class of executed instruction. (Count)
system.cpu0.exec_context.thread_0.statExecutedInstType::FloatDiv           26      0.00%     76.47% # Class of executed instruction. (Count)
system.cpu0.exec_context.thread_0.statExecutedInstType::FloatMisc            0      0.00%     76.47% # Class of executed instruction. (Count)
system.cpu0.exec_context.thread_0.statExecutedInstType::FloatSqrt            0      0.00%     76.47% # Class of executed instruction. (Count)
system.cpu0.exec_context.thread_0.statExecutedInstType::SimdAdd        19430      0.00%     76.47% # Class of executed instruction. (Count)
system.cpu0.exec_context.thread_0.statExecutedInstType::SimdAddAcc            0      0.00%     76.47% # Class of executed instruction. (Count)
system.cpu0.exec_context.thread_0.statExecutedInstType::SimdAlu       908527      0.12%     76.59% # Class of executed instruction. (Count)
system.cpu0.exec_context.thread_0.statExecutedInstType::SimdCmp         3198      0.00%     76.59% # Class of executed instruction. (Count)
system.cpu0.exec_context.thread_0.statExecutedInstType::SimdCvt       659518      0.09%     76.68% # Class of executed instruction. (Count)
system.cpu0.exec_context.thread_0.statExecutedInstType::SimdMisc      3446340      0.45%     77.13% # Class of executed instruction. (Count)
system.cpu0.exec_context.thread_0.statExecutedInstType::SimdMult            0      0.00%     77.13% # Class of executed instruction. (Count)
system.cpu0.exec_context.thread_0.statExecutedInstType::SimdMultAcc            0      0.00%     77.13% # Class of executed instruction. (Count)
system.cpu0.exec_context.thread_0.statExecutedInstType::SimdShift         8988      0.00%     77.13% # Class of executed instruction. (Count)
system.cpu0.exec_context.thread_0.statExecutedInstType::SimdShiftAcc            0      0.00%     77.13% # Class of executed instruction. (Count)
system.cpu0.exec_context.thread_0.statExecutedInstType::SimdDiv            0      0.00%     77.13% # Class of executed instruction. (Count)
system.cpu0.exec_context.thread_0.statExecutedInstType::SimdSqrt            0      0.00%     77.13% # Class of executed instruction. (Count)
system.cpu0.exec_context.thread_0.statExecutedInstType::SimdFloatAdd        92610      0.01%     77.14% # Class of executed instruction. (Count)
system.cpu0.exec_context.thread_0.statExecutedInstType::SimdFloatAlu            0      0.00%     77.14% # Class of executed instruction. (Count)
system.cpu0.exec_context.thread_0.statExecutedInstType::SimdFloatCmp            0      0.00%     77.14% # Class of executed instruction. (Count)
system.cpu0.exec_context.thread_0.statExecutedInstType::SimdFloatCvt       555721      0.07%     77.22% # Class of executed instruction. (Count)
system.cpu0.exec_context.thread_0.statExecutedInstType::SimdFloatDiv            5      0.00%     77.22% # Class of executed instruction. (Count)
system.cpu0.exec_context.thread_0.statExecutedInstType::SimdFloatMisc            0      0.00%     77.22% # Class of executed instruction. (Count)
system.cpu0.exec_context.thread_0.statExecutedInstType::SimdFloatMult       185245      0.02%     77.24% # Class of executed instruction. (Count)
system.cpu0.exec_context.thread_0.statExecutedInstType::SimdFloatMultAcc            0      0.00%     77.24% # Class of executed instruction. (Count)
system.cpu0.exec_context.thread_0.statExecutedInstType::SimdFloatSqrt            0      0.00%     77.24% # Class of executed instruction. (Count)
system.cpu0.exec_context.thread_0.statExecutedInstType::SimdReduceAdd            0      0.00%     77.24% # Class of executed instruction. (Count)
system.cpu0.exec_context.thread_0.statExecutedInstType::SimdReduceAlu            0      0.00%     77.24% # Class of executed instruction. (Count)
system.cpu0.exec_context.thread_0.statExecutedInstType::SimdReduceCmp            0      0.00%     77.24% # Class of executed instruction. (Count)
system.cpu0.exec_context.thread_0.statExecutedInstType::SimdFloatReduceAdd            0      0.00%     77.24% # Class of executed instruction. (Count)
system.cpu0.exec_context.thread_0.statExecutedInstType::SimdFloatReduceCmp            0      0.00%     77.24% # Class of executed instruction. (Count)
system.cpu0.exec_context.thread_0.statExecutedInstType::SimdAes            0      0.00%     77.24% # Class of executed instruction. (Count)
system.cpu0.exec_context.thread_0.statExecutedInstType::SimdAesMix            0      0.00%     77.24% # Class of executed instruction. (Count)
system.cpu0.exec_context.thread_0.statExecutedInstType::SimdSha1Hash            0      0.00%     77.24% # Class of executed instruction. (Count)
system.cpu0.exec_context.thread_0.statExecutedInstType::SimdSha1Hash2            0      0.00%     77.24% # Class of executed instruction. (Count)
system.cpu0.exec_context.thread_0.statExecutedInstType::SimdSha256Hash            0      0.00%     77.24% # Class of executed instruction. (Count)
system.cpu0.exec_context.thread_0.statExecutedInstType::SimdSha256Hash2            0      0.00%     77.24% # Class of executed instruction. (Count)
system.cpu0.exec_context.thread_0.statExecutedInstType::SimdShaSigma2            0      0.00%     77.24% # Class of executed instruction. (Count)
system.cpu0.exec_context.thread_0.statExecutedInstType::SimdShaSigma3            0      0.00%     77.24% # Class of executed instruction. (Count)
system.cpu0.exec_context.thread_0.statExecutedInstType::SimdPredAlu            0      0.00%     77.24% # Class of executed instruction. (Count)
system.cpu0.exec_context.thread_0.statExecutedInstType::MemRead    105496586     13.84%     91.09% # Class of executed instruction. (Count)
system.cpu0.exec_context.thread_0.statExecutedInstType::MemWrite     58862426      7.72%     98.81% # Class of executed instruction. (Count)
system.cpu0.exec_context.thread_0.statExecutedInstType::FloatMemRead      3672338      0.48%     99.29% # Class of executed instruction. (Count)
system.cpu0.exec_context.thread_0.statExecutedInstType::FloatMemWrite      5398458      0.71%    100.00% # Class of executed instruction. (Count)
system.cpu0.exec_context.thread_0.statExecutedInstType::IprAccess            0      0.00%    100.00% # Class of executed instruction. (Count)
system.cpu0.exec_context.thread_0.statExecutedInstType::InstPrefetch            0      0.00%    100.00% # Class of executed instruction. (Count)
system.cpu0.exec_context.thread_0.statExecutedInstType::total    762047443                       # Class of executed instruction. (Count)
system.cpu0.interrupts.clk_domain.clock          8000                       # Clock period in ticks (Tick)
system.cpu0.mmu.dtb.rdAccesses              110067243                       # TLB accesses on read requests (Count)
system.cpu0.mmu.dtb.wrAccesses               64554738                       # TLB accesses on write requests (Count)
system.cpu0.mmu.dtb.rdMisses                    28885                       # TLB misses on read requests (Count)
system.cpu0.mmu.dtb.wrMisses                    19517                       # TLB misses on write requests (Count)
system.cpu0.mmu.dtb.walker.power_state.pwrStateResidencyTicks::UNDEFINED 1066534074500                       # Cumulative time (in ticks) in various power states (Tick)
system.cpu0.mmu.itb.rdAccesses                      0                       # TLB accesses on read requests (Count)
system.cpu0.mmu.itb.wrAccesses              563006972                       # TLB accesses on write requests (Count)
system.cpu0.mmu.itb.rdMisses                        0                       # TLB misses on read requests (Count)
system.cpu0.mmu.itb.wrMisses                     4617                       # TLB misses on write requests (Count)
system.cpu0.mmu.itb.walker.power_state.pwrStateResidencyTicks::UNDEFINED 1066534074500                       # Cumulative time (in ticks) in various power states (Tick)
system.cpu0.power_state.numTransitions             12                       # Number of power state transitions (Count)
system.cpu0.power_state.ticksClkGated::samples            6                       # Distribution of time spent in the clock gated state (Tick)
system.cpu0.power_state.ticksClkGated::mean 701448666.666667                       # Distribution of time spent in the clock gated state (Tick)
system.cpu0.power_state.ticksClkGated::stdev 1654126688.795198                       # Distribution of time spent in the clock gated state (Tick)
system.cpu0.power_state.ticksClkGated::1000-5e+10            6    100.00%    100.00% # Distribution of time spent in the clock gated state (Tick)
system.cpu0.power_state.ticksClkGated::min_value      3663000                       # Distribution of time spent in the clock gated state (Tick)
system.cpu0.power_state.ticksClkGated::max_value   4077462500                       # Distribution of time spent in the clock gated state (Tick)
system.cpu0.power_state.ticksClkGated::total            6                       # Distribution of time spent in the clock gated state (Tick)
system.cpu0.power_state.pwrStateResidencyTicks::ON 1062325382500                       # Cumulative time (in ticks) in various power states (Tick)
system.cpu0.power_state.pwrStateResidencyTicks::CLK_GATED   4208692000                       # Cumulative time (in ticks) in various power states (Tick)
system.cpu0.thread_0.numInsts                       0                       # Number of Instructions committed (Count)
system.cpu0.thread_0.numOps                         0                       # Number of Ops committed (Count)
system.cpu0.thread_0.numMemRefs                     0                       # Number of Memory References (Count)
system.cpu0.workload.numSyscalls               481677                       # Number of system calls (Count)
system.cpu0.workload.drivers0.device.dispatcher.numKernelLaunched           19                       # number of kernel launched (Unspecified)
system.cpu0.workload.drivers0.device.dispatcher.cyclesWaitingForDispatch           57                       # number of cycles with outstanding wavefronts that are waiting to be dispatched (Unspecified)
system.cpu0.workload.drivers0.device.hsapp.power_state.pwrStateResidencyTicks::UNDEFINED 1066534074500                       # Cumulative time (in ticks) in various power states (Tick)
system.cpu0.workload.drivers0.device.hsapp.walker.power_state.pwrStateResidencyTicks::UNDEFINED 1066534074500                       # Cumulative time (in ticks) in various power states (Tick)
system.cpu0.workload.drivers0.device.power_state.pwrStateResidencyTicks::UNDEFINED 1066534074500                       # Cumulative time (in ticks) in various power states (Tick)
system.cpu0.workload.drivers0.device.walker.power_state.pwrStateResidencyTicks::UNDEFINED 1066534074500                       # Cumulative time (in ticks) in various power states (Tick)
system.cpu1.numCycles                      2090942963                       # Number of cpu cycles simulated (Cycle)
system.cpu1.numWorkItemsStarted                     0                       # Number of work items this cpu started (Count)
system.cpu1.numWorkItemsCompleted                   0                       # Number of work items this cpu completed (Count)
system.cpu1.clk_domain.clock                      500                       # Clock period in ticks (Tick)
system.cpu1.clk_domain.voltage_domain.voltage            1                       # Voltage in Volts (Volt)
system.cpu1.exec_context.thread_0.numInsts       345688                       # Number of instructions committed (Count)
system.cpu1.exec_context.thread_0.numOps       643801                       # Number of ops (including micro ops) committed (Count)
system.cpu1.exec_context.thread_0.numIntAluAccesses       620389                       # Number of integer alu accesses (Count)
system.cpu1.exec_context.thread_0.numFpAluAccesses        20260                       # Number of float alu accesses (Count)
system.cpu1.exec_context.thread_0.numVecAluAccesses            0                       # Number of vector alu accesses (Count)
system.cpu1.exec_context.thread_0.numCallsReturns        18122                       # Number of times a function call or return occured (Count)
system.cpu1.exec_context.thread_0.numCondCtrlInsts        89405                       # Number of instructions that are conditional controls (Count)
system.cpu1.exec_context.thread_0.numIntInsts       620389                       # Number of integer instructions (Count)
system.cpu1.exec_context.thread_0.numFpInsts        20260                       # Number of float instructions (Count)
system.cpu1.exec_context.thread_0.numVecInsts            0                       # Number of vector instructions (Count)
system.cpu1.exec_context.thread_0.numIntRegReads       675877                       # Number of times the integer registers were read (Count)
system.cpu1.exec_context.thread_0.numIntRegWrites       403339                       # Number of times the integer registers were written (Count)
system.cpu1.exec_context.thread_0.numFpRegReads        24383                       # Number of times the floating registers were read (Count)
system.cpu1.exec_context.thread_0.numFpRegWrites        17004                       # Number of times the floating registers were written (Count)
system.cpu1.exec_context.thread_0.numVecRegReads            0                       # Number of times the vector registers were read (Count)
system.cpu1.exec_context.thread_0.numVecRegWrites            0                       # Number of times the vector registers were written (Count)
system.cpu1.exec_context.thread_0.numVecPredRegReads            0                       # Number of times the predicate registers were read (Count)
system.cpu1.exec_context.thread_0.numVecPredRegWrites            0                       # Number of times the predicate registers were written (Count)
system.cpu1.exec_context.thread_0.numCCRegReads       546526                       # Number of times the CC registers were read (Count)
system.cpu1.exec_context.thread_0.numCCRegWrites       187346                       # Number of times the CC registers were written (Count)
system.cpu1.exec_context.thread_0.numMiscRegReads       374198                       # Number of times the Misc registers were read (Count)
system.cpu1.exec_context.thread_0.numMiscRegWrites           27                       # Number of times the Misc registers were written (Count)
system.cpu1.exec_context.thread_0.numMemRefs       158727                       # Number of memory refs (Count)
system.cpu1.exec_context.thread_0.numLoadInsts       143981                       # Number of load instructions (Count)
system.cpu1.exec_context.thread_0.numStoreInsts        14746                       # Number of store instructions (Count)
system.cpu1.exec_context.thread_0.numIdleCycles 2089633674.581379                       # Number of idle cycles (Cycle)
system.cpu1.exec_context.thread_0.numBusyCycles 1309288.418621                       # Number of busy cycles (Cycle)
system.cpu1.exec_context.thread_0.notIdleFraction     0.000626                       # Percentage of non-idle cycles (Ratio)
system.cpu1.exec_context.thread_0.idleFraction     0.999374                       # Percentage of idle cycles (Ratio)
system.cpu1.exec_context.thread_0.numBranches       110211                       # Number of branches fetched (Count)
system.cpu1.exec_context.thread_0.statExecutedInstType::No_OpClass        10535      1.64%      1.64% # Class of executed instruction. (Count)
system.cpu1.exec_context.thread_0.statExecutedInstType::IntAlu       460416     71.51%     73.15% # Class of executed instruction. (Count)
system.cpu1.exec_context.thread_0.statExecutedInstType::IntMult            3      0.00%     73.15% # Class of executed instruction. (Count)
system.cpu1.exec_context.thread_0.statExecutedInstType::IntDiv           75      0.01%     73.16% # Class of executed instruction. (Count)
system.cpu1.exec_context.thread_0.statExecutedInstType::FloatAdd         2866      0.45%     73.61% # Class of executed instruction. (Count)
system.cpu1.exec_context.thread_0.statExecutedInstType::FloatCmp            0      0.00%     73.61% # Class of executed instruction. (Count)
system.cpu1.exec_context.thread_0.statExecutedInstType::FloatCvt           48      0.01%     73.62% # Class of executed instruction. (Count)
system.cpu1.exec_context.thread_0.statExecutedInstType::FloatMult            0      0.00%     73.62% # Class of executed instruction. (Count)
system.cpu1.exec_context.thread_0.statExecutedInstType::FloatMultAcc            0      0.00%     73.62% # Class of executed instruction. (Count)
system.cpu1.exec_context.thread_0.statExecutedInstType::FloatDiv            0      0.00%     73.62% # Class of executed instruction. (Count)
system.cpu1.exec_context.thread_0.statExecutedInstType::FloatMisc            0      0.00%     73.62% # Class of executed instruction. (Count)
system.cpu1.exec_context.thread_0.statExecutedInstType::FloatSqrt            0      0.00%     73.62% # Class of executed instruction. (Count)
system.cpu1.exec_context.thread_0.statExecutedInstType::SimdAdd           20      0.00%     73.62% # Class of executed instruction. (Count)
system.cpu1.exec_context.thread_0.statExecutedInstType::SimdAddAcc            0      0.00%     73.62% # Class of executed instruction. (Count)
system.cpu1.exec_context.thread_0.statExecutedInstType::SimdAlu         2758      0.43%     74.05% # Class of executed instruction. (Count)
system.cpu1.exec_context.thread_0.statExecutedInstType::SimdCmp            0      0.00%     74.05% # Class of executed instruction. (Count)
system.cpu1.exec_context.thread_0.statExecutedInstType::SimdCvt           40      0.01%     74.05% # Class of executed instruction. (Count)
system.cpu1.exec_context.thread_0.statExecutedInstType::SimdMisc         1544      0.24%     74.29% # Class of executed instruction. (Count)
system.cpu1.exec_context.thread_0.statExecutedInstType::SimdMult            0      0.00%     74.29% # Class of executed instruction. (Count)
system.cpu1.exec_context.thread_0.statExecutedInstType::SimdMultAcc            0      0.00%     74.29% # Class of executed instruction. (Count)
system.cpu1.exec_context.thread_0.statExecutedInstType::SimdShift           21      0.00%     74.30% # Class of executed instruction. (Count)
system.cpu1.exec_context.thread_0.statExecutedInstType::SimdShiftAcc            0      0.00%     74.30% # Class of executed instruction. (Count)
system.cpu1.exec_context.thread_0.statExecutedInstType::SimdDiv            0      0.00%     74.30% # Class of executed instruction. (Count)
system.cpu1.exec_context.thread_0.statExecutedInstType::SimdSqrt            0      0.00%     74.30% # Class of executed instruction. (Count)
system.cpu1.exec_context.thread_0.statExecutedInstType::SimdFloatAdd         1351      0.21%     74.51% # Class of executed instruction. (Count)
system.cpu1.exec_context.thread_0.statExecutedInstType::SimdFloatAlu            0      0.00%     74.51% # Class of executed instruction. (Count)
system.cpu1.exec_context.thread_0.statExecutedInstType::SimdFloatCmp            0      0.00%     74.51% # Class of executed instruction. (Count)
system.cpu1.exec_context.thread_0.statExecutedInstType::SimdFloatCvt         4047      0.63%     75.13% # Class of executed instruction. (Count)
system.cpu1.exec_context.thread_0.statExecutedInstType::SimdFloatDiv            7      0.00%     75.14% # Class of executed instruction. (Count)
system.cpu1.exec_context.thread_0.statExecutedInstType::SimdFloatMisc            0      0.00%     75.14% # Class of executed instruction. (Count)
system.cpu1.exec_context.thread_0.statExecutedInstType::SimdFloatMult         1352      0.21%     75.35% # Class of executed instruction. (Count)
system.cpu1.exec_context.thread_0.statExecutedInstType::SimdFloatMultAcc            0      0.00%     75.35% # Class of executed instruction. (Count)
system.cpu1.exec_context.thread_0.statExecutedInstType::SimdFloatSqrt            0      0.00%     75.35% # Class of executed instruction. (Count)
system.cpu1.exec_context.thread_0.statExecutedInstType::SimdReduceAdd            0      0.00%     75.35% # Class of executed instruction. (Count)
system.cpu1.exec_context.thread_0.statExecutedInstType::SimdReduceAlu            0      0.00%     75.35% # Class of executed instruction. (Count)
system.cpu1.exec_context.thread_0.statExecutedInstType::SimdReduceCmp            0      0.00%     75.35% # Class of executed instruction. (Count)
system.cpu1.exec_context.thread_0.statExecutedInstType::SimdFloatReduceAdd            0      0.00%     75.35% # Class of executed instruction. (Count)
system.cpu1.exec_context.thread_0.statExecutedInstType::SimdFloatReduceCmp            0      0.00%     75.35% # Class of executed instruction. (Count)
system.cpu1.exec_context.thread_0.statExecutedInstType::SimdAes            0      0.00%     75.35% # Class of executed instruction. (Count)
system.cpu1.exec_context.thread_0.statExecutedInstType::SimdAesMix            0      0.00%     75.35% # Class of executed instruction. (Count)
system.cpu1.exec_context.thread_0.statExecutedInstType::SimdSha1Hash            0      0.00%     75.35% # Class of executed instruction. (Count)
system.cpu1.exec_context.thread_0.statExecutedInstType::SimdSha1Hash2            0      0.00%     75.35% # Class of executed instruction. (Count)
system.cpu1.exec_context.thread_0.statExecutedInstType::SimdSha256Hash            0      0.00%     75.35% # Class of executed instruction. (Count)
system.cpu1.exec_context.thread_0.statExecutedInstType::SimdSha256Hash2            0      0.00%     75.35% # Class of executed instruction. (Count)
system.cpu1.exec_context.thread_0.statExecutedInstType::SimdShaSigma2            0      0.00%     75.35% # Class of executed instruction. (Count)
system.cpu1.exec_context.thread_0.statExecutedInstType::SimdShaSigma3            0      0.00%     75.35% # Class of executed instruction. (Count)
system.cpu1.exec_context.thread_0.statExecutedInstType::SimdPredAlu            0      0.00%     75.35% # Class of executed instruction. (Count)
system.cpu1.exec_context.thread_0.statExecutedInstType::MemRead       138426     21.50%     96.85% # Class of executed instruction. (Count)
system.cpu1.exec_context.thread_0.statExecutedInstType::MemWrite        14249      2.21%     99.06% # Class of executed instruction. (Count)
system.cpu1.exec_context.thread_0.statExecutedInstType::FloatMemRead         5555      0.86%     99.92% # Class of executed instruction. (Count)
system.cpu1.exec_context.thread_0.statExecutedInstType::FloatMemWrite          497      0.08%    100.00% # Class of executed instruction. (Count)
system.cpu1.exec_context.thread_0.statExecutedInstType::IprAccess            0      0.00%    100.00% # Class of executed instruction. (Count)
system.cpu1.exec_context.thread_0.statExecutedInstType::InstPrefetch            0      0.00%    100.00% # Class of executed instruction. (Count)
system.cpu1.exec_context.thread_0.statExecutedInstType::total       643810                       # Class of executed instruction. (Count)
system.cpu1.interrupts.clk_domain.clock          8000                       # Clock period in ticks (Tick)
system.cpu1.mmu.dtb.rdAccesses                 143981                       # TLB accesses on read requests (Count)
system.cpu1.mmu.dtb.wrAccesses                  14746                       # TLB accesses on write requests (Count)
system.cpu1.mmu.dtb.rdMisses                      152                       # TLB misses on read requests (Count)
system.cpu1.mmu.dtb.wrMisses                        3                       # TLB misses on write requests (Count)
system.cpu1.mmu.dtb.walker.power_state.pwrStateResidencyTicks::UNDEFINED 1066534074500                       # Cumulative time (in ticks) in various power states (Tick)
system.cpu1.mmu.itb.rdAccesses                      0                       # TLB accesses on read requests (Count)
system.cpu1.mmu.itb.wrAccesses                 456641                       # TLB accesses on write requests (Count)
system.cpu1.mmu.itb.rdMisses                        0                       # TLB misses on read requests (Count)
system.cpu1.mmu.itb.wrMisses                      128                       # TLB misses on write requests (Count)
system.cpu1.mmu.itb.walker.power_state.pwrStateResidencyTicks::UNDEFINED 1066534074500                       # Cumulative time (in ticks) in various power states (Tick)
system.cpu1.power_state.numTransitions              3                       # Number of power state transitions (Count)
system.cpu1.power_state.ticksClkGated::samples            2                       # Distribution of time spent in the clock gated state (Tick)
system.cpu1.power_state.ticksClkGated::mean  11556328750                       # Distribution of time spent in the clock gated state (Tick)
system.cpu1.power_state.ticksClkGated::stdev 13443887829.852499                       # Distribution of time spent in the clock gated state (Tick)
system.cpu1.power_state.ticksClkGated::1000-5e+10            2    100.00%    100.00% # Distribution of time spent in the clock gated state (Tick)
system.cpu1.power_state.ticksClkGated::min_value   2050064500                       # Distribution of time spent in the clock gated state (Tick)
system.cpu1.power_state.ticksClkGated::max_value  21062593000                       # Distribution of time spent in the clock gated state (Tick)
system.cpu1.power_state.ticksClkGated::total            2                       # Distribution of time spent in the clock gated state (Tick)
system.cpu1.power_state.pwrStateResidencyTicks::ON 1043421417000                       # Cumulative time (in ticks) in various power states (Tick)
system.cpu1.power_state.pwrStateResidencyTicks::CLK_GATED  23112657500                       # Cumulative time (in ticks) in various power states (Tick)
system.cpu1.thread_0.numInsts                       0                       # Number of Instructions committed (Count)
system.cpu1.thread_0.numOps                         0                       # Number of Ops committed (Count)
system.cpu1.thread_0.numMemRefs                     0                       # Number of Memory References (Count)
system.cpu2.numCycles                      2121161685                       # Number of cpu cycles simulated (Cycle)
system.cpu2.numWorkItemsStarted                     0                       # Number of work items this cpu started (Count)
system.cpu2.numWorkItemsCompleted                   0                       # Number of work items this cpu completed (Count)
system.cpu2.clk_domain.clock                      500                       # Clock period in ticks (Tick)
system.cpu2.clk_domain.voltage_domain.voltage            1                       # Voltage in Volts (Volt)
system.cpu2.exec_context.thread_0.numInsts      2135021                       # Number of instructions committed (Count)
system.cpu2.exec_context.thread_0.numOps      4133230                       # Number of ops (including micro ops) committed (Count)
system.cpu2.exec_context.thread_0.numIntAluAccesses      3866151                       # Number of integer alu accesses (Count)
system.cpu2.exec_context.thread_0.numFpAluAccesses       580624                       # Number of float alu accesses (Count)
system.cpu2.exec_context.thread_0.numVecAluAccesses            0                       # Number of vector alu accesses (Count)
system.cpu2.exec_context.thread_0.numCallsReturns        56886                       # Number of times a function call or return occured (Count)
system.cpu2.exec_context.thread_0.numCondCtrlInsts       322311                       # Number of instructions that are conditional controls (Count)
system.cpu2.exec_context.thread_0.numIntInsts      3866151                       # Number of integer instructions (Count)
system.cpu2.exec_context.thread_0.numFpInsts       580624                       # Number of float instructions (Count)
system.cpu2.exec_context.thread_0.numVecInsts            0                       # Number of vector instructions (Count)
system.cpu2.exec_context.thread_0.numIntRegReads      4519654                       # Number of times the integer registers were read (Count)
system.cpu2.exec_context.thread_0.numIntRegWrites      2439969                       # Number of times the integer registers were written (Count)
system.cpu2.exec_context.thread_0.numFpRegReads       522332                       # Number of times the floating registers were read (Count)
system.cpu2.exec_context.thread_0.numFpRegWrites       386406                       # Number of times the floating registers were written (Count)
system.cpu2.exec_context.thread_0.numVecRegReads            0                       # Number of times the vector registers were read (Count)
system.cpu2.exec_context.thread_0.numVecRegWrites            0                       # Number of times the vector registers were written (Count)
system.cpu2.exec_context.thread_0.numVecPredRegReads            0                       # Number of times the predicate registers were read (Count)
system.cpu2.exec_context.thread_0.numVecPredRegWrites            0                       # Number of times the predicate registers were written (Count)
system.cpu2.exec_context.thread_0.numCCRegReads      2354080                       # Number of times the CC registers were read (Count)
system.cpu2.exec_context.thread_0.numCCRegWrites      1192110                       # Number of times the CC registers were written (Count)
system.cpu2.exec_context.thread_0.numMiscRegReads      2013257                       # Number of times the Misc registers were read (Count)
system.cpu2.exec_context.thread_0.numMiscRegWrites          329                       # Number of times the Misc registers were written (Count)
system.cpu2.exec_context.thread_0.numMemRefs      1089322                       # Number of memory refs (Count)
system.cpu2.exec_context.thread_0.numLoadInsts       636703                       # Number of load instructions (Count)
system.cpu2.exec_context.thread_0.numStoreInsts       452619                       # Number of store instructions (Count)
system.cpu2.exec_context.thread_0.numIdleCycles 2097230398.636661                       # Number of idle cycles (Cycle)
system.cpu2.exec_context.thread_0.numBusyCycles 23931286.363339                       # Number of busy cycles (Cycle)
system.cpu2.exec_context.thread_0.notIdleFraction     0.011282                       # Percentage of non-idle cycles (Ratio)
system.cpu2.exec_context.thread_0.idleFraction     0.988718                       # Percentage of idle cycles (Ratio)
system.cpu2.exec_context.thread_0.numBranches       427110                       # Number of branches fetched (Count)
system.cpu2.exec_context.thread_0.statExecutedInstType::No_OpClass       109644      2.61%      2.61% # Class of executed instruction. (Count)
system.cpu2.exec_context.thread_0.statExecutedInstType::IntAlu      2792295     66.48%     69.09% # Class of executed instruction. (Count)
system.cpu2.exec_context.thread_0.statExecutedInstType::IntMult         1277      0.03%     69.12% # Class of executed instruction. (Count)
system.cpu2.exec_context.thread_0.statExecutedInstType::IntDiv         1357      0.03%     69.15% # Class of executed instruction. (Count)
system.cpu2.exec_context.thread_0.statExecutedInstType::FloatAdd        34101      0.81%     69.96% # Class of executed instruction. (Count)
system.cpu2.exec_context.thread_0.statExecutedInstType::FloatCmp            3      0.00%     69.96% # Class of executed instruction. (Count)
system.cpu2.exec_context.thread_0.statExecutedInstType::FloatCvt          530      0.01%     69.98% # Class of executed instruction. (Count)
system.cpu2.exec_context.thread_0.statExecutedInstType::FloatMult            1      0.00%     69.98% # Class of executed instruction. (Count)
system.cpu2.exec_context.thread_0.statExecutedInstType::FloatMultAcc            0      0.00%     69.98% # Class of executed instruction. (Count)
system.cpu2.exec_context.thread_0.statExecutedInstType::FloatDiv            1      0.00%     69.98% # Class of executed instruction. (Count)
system.cpu2.exec_context.thread_0.statExecutedInstType::FloatMisc            0      0.00%     69.98% # Class of executed instruction. (Count)
system.cpu2.exec_context.thread_0.statExecutedInstType::FloatSqrt            0      0.00%     69.98% # Class of executed instruction. (Count)
system.cpu2.exec_context.thread_0.statExecutedInstType::SimdAdd          412      0.01%     69.99% # Class of executed instruction. (Count)
system.cpu2.exec_context.thread_0.statExecutedInstType::SimdAddAcc            0      0.00%     69.99% # Class of executed instruction. (Count)
system.cpu2.exec_context.thread_0.statExecutedInstType::SimdAlu        48754      1.16%     71.15% # Class of executed instruction. (Count)
system.cpu2.exec_context.thread_0.statExecutedInstType::SimdCmp           12      0.00%     71.15% # Class of executed instruction. (Count)
system.cpu2.exec_context.thread_0.statExecutedInstType::SimdCvt          558      0.01%     71.16% # Class of executed instruction. (Count)
system.cpu2.exec_context.thread_0.statExecutedInstType::SimdMisc        21944      0.52%     71.68% # Class of executed instruction. (Count)
system.cpu2.exec_context.thread_0.statExecutedInstType::SimdMult            0      0.00%     71.68% # Class of executed instruction. (Count)
system.cpu2.exec_context.thread_0.statExecutedInstType::SimdMultAcc            0      0.00%     71.68% # Class of executed instruction. (Count)
system.cpu2.exec_context.thread_0.statExecutedInstType::SimdShift          283      0.01%     71.69% # Class of executed instruction. (Count)
system.cpu2.exec_context.thread_0.statExecutedInstType::SimdShiftAcc            0      0.00%     71.69% # Class of executed instruction. (Count)
system.cpu2.exec_context.thread_0.statExecutedInstType::SimdDiv            0      0.00%     71.69% # Class of executed instruction. (Count)
system.cpu2.exec_context.thread_0.statExecutedInstType::SimdSqrt            0      0.00%     71.69% # Class of executed instruction. (Count)
system.cpu2.exec_context.thread_0.statExecutedInstType::SimdFloatAdd        20815      0.50%     72.18% # Class of executed instruction. (Count)
system.cpu2.exec_context.thread_0.statExecutedInstType::SimdFloatAlu            0      0.00%     72.18% # Class of executed instruction. (Count)
system.cpu2.exec_context.thread_0.statExecutedInstType::SimdFloatCmp            0      0.00%     72.18% # Class of executed instruction. (Count)
system.cpu2.exec_context.thread_0.statExecutedInstType::SimdFloatCvt        58201      1.39%     73.57% # Class of executed instruction. (Count)
system.cpu2.exec_context.thread_0.statExecutedInstType::SimdFloatDiv           16      0.00%     73.57% # Class of executed instruction. (Count)
system.cpu2.exec_context.thread_0.statExecutedInstType::SimdFloatMisc            0      0.00%     73.57% # Class of executed instruction. (Count)
system.cpu2.exec_context.thread_0.statExecutedInstType::SimdFloatMult        20831      0.50%     74.07% # Class of executed instruction. (Count)
system.cpu2.exec_context.thread_0.statExecutedInstType::SimdFloatMultAcc            0      0.00%     74.07% # Class of executed instruction. (Count)
system.cpu2.exec_context.thread_0.statExecutedInstType::SimdFloatSqrt            0      0.00%     74.07% # Class of executed instruction. (Count)
system.cpu2.exec_context.thread_0.statExecutedInstType::SimdReduceAdd            0      0.00%     74.07% # Class of executed instruction. (Count)
system.cpu2.exec_context.thread_0.statExecutedInstType::SimdReduceAlu            0      0.00%     74.07% # Class of executed instruction. (Count)
system.cpu2.exec_context.thread_0.statExecutedInstType::SimdReduceCmp            0      0.00%     74.07% # Class of executed instruction. (Count)
system.cpu2.exec_context.thread_0.statExecutedInstType::SimdFloatReduceAdd            0      0.00%     74.07% # Class of executed instruction. (Count)
system.cpu2.exec_context.thread_0.statExecutedInstType::SimdFloatReduceCmp            0      0.00%     74.07% # Class of executed instruction. (Count)
system.cpu2.exec_context.thread_0.statExecutedInstType::SimdAes            0      0.00%     74.07% # Class of executed instruction. (Count)
system.cpu2.exec_context.thread_0.statExecutedInstType::SimdAesMix            0      0.00%     74.07% # Class of executed instruction. (Count)
system.cpu2.exec_context.thread_0.statExecutedInstType::SimdSha1Hash            0      0.00%     74.07% # Class of executed instruction. (Count)
system.cpu2.exec_context.thread_0.statExecutedInstType::SimdSha1Hash2            0      0.00%     74.07% # Class of executed instruction. (Count)
system.cpu2.exec_context.thread_0.statExecutedInstType::SimdSha256Hash            0      0.00%     74.07% # Class of executed instruction. (Count)
system.cpu2.exec_context.thread_0.statExecutedInstType::SimdSha256Hash2            0      0.00%     74.07% # Class of executed instruction. (Count)
system.cpu2.exec_context.thread_0.statExecutedInstType::SimdShaSigma2            0      0.00%     74.07% # Class of executed instruction. (Count)
system.cpu2.exec_context.thread_0.statExecutedInstType::SimdShaSigma3            0      0.00%     74.07% # Class of executed instruction. (Count)
system.cpu2.exec_context.thread_0.statExecutedInstType::SimdPredAlu            0      0.00%     74.07% # Class of executed instruction. (Count)
system.cpu2.exec_context.thread_0.statExecutedInstType::MemRead       419207      9.98%     84.05% # Class of executed instruction. (Count)
system.cpu2.exec_context.thread_0.statExecutedInstType::MemWrite       296597      7.06%     91.11% # Class of executed instruction. (Count)
system.cpu2.exec_context.thread_0.statExecutedInstType::FloatMemRead       217496      5.18%     96.29% # Class of executed instruction. (Count)
system.cpu2.exec_context.thread_0.statExecutedInstType::FloatMemWrite       156022      3.71%    100.00% # Class of executed instruction. (Count)
system.cpu2.exec_context.thread_0.statExecutedInstType::IprAccess            0      0.00%    100.00% # Class of executed instruction. (Count)
system.cpu2.exec_context.thread_0.statExecutedInstType::InstPrefetch            0      0.00%    100.00% # Class of executed instruction. (Count)
system.cpu2.exec_context.thread_0.statExecutedInstType::total      4200357                       # Class of executed instruction. (Count)
system.cpu2.interrupts.clk_domain.clock          8000                       # Clock period in ticks (Tick)
system.cpu2.mmu.dtb.rdAccesses                 636729                       # TLB accesses on read requests (Count)
system.cpu2.mmu.dtb.wrAccesses                 452882                       # TLB accesses on write requests (Count)
system.cpu2.mmu.dtb.rdMisses                     1404                       # TLB misses on read requests (Count)
system.cpu2.mmu.dtb.wrMisses                      557                       # TLB misses on write requests (Count)
system.cpu2.mmu.dtb.walker.power_state.pwrStateResidencyTicks::UNDEFINED 1066534074500                       # Cumulative time (in ticks) in various power states (Tick)
system.cpu2.mmu.itb.rdAccesses                      0                       # TLB accesses on read requests (Count)
system.cpu2.mmu.itb.wrAccesses                3027442                       # TLB accesses on write requests (Count)
system.cpu2.mmu.itb.rdMisses                        0                       # TLB misses on read requests (Count)
system.cpu2.mmu.itb.wrMisses                      504                       # TLB misses on write requests (Count)
system.cpu2.mmu.itb.walker.power_state.pwrStateResidencyTicks::UNDEFINED 1066534074500                       # Cumulative time (in ticks) in various power states (Tick)
system.cpu2.power_state.numTransitions             49                       # Number of power state transitions (Count)
system.cpu2.power_state.ticksClkGated::samples           25                       # Distribution of time spent in the clock gated state (Tick)
system.cpu2.power_state.ticksClkGated::mean    420079560                       # Distribution of time spent in the clock gated state (Tick)
system.cpu2.power_state.ticksClkGated::stdev 1397452146.369900                       # Distribution of time spent in the clock gated state (Tick)
system.cpu2.power_state.ticksClkGated::1000-5e+10           25    100.00%    100.00% # Distribution of time spent in the clock gated state (Tick)
system.cpu2.power_state.ticksClkGated::min_value      2016500                       # Distribution of time spent in the clock gated state (Tick)
system.cpu2.power_state.ticksClkGated::max_value   5953232000                       # Distribution of time spent in the clock gated state (Tick)
system.cpu2.power_state.ticksClkGated::total           25                       # Distribution of time spent in the clock gated state (Tick)
system.cpu2.power_state.pwrStateResidencyTicks::ON 1056032085500                       # Cumulative time (in ticks) in various power states (Tick)
system.cpu2.power_state.pwrStateResidencyTicks::CLK_GATED  10501989000                       # Cumulative time (in ticks) in various power states (Tick)
system.cpu2.thread_0.numInsts                       0                       # Number of Instructions committed (Count)
system.cpu2.thread_0.numOps                         0                       # Number of Ops committed (Count)
system.cpu2.thread_0.numMemRefs                     0                       # Number of Memory References (Count)
system.cpu3.allLatencyDist::bucket_size         10000                       # delay distribution for all (Unspecified)
system.cpu3.allLatencyDist::min_bucket              0                       # delay distribution for all (Unspecified)
system.cpu3.allLatencyDist::max_bucket        1600000                       # delay distribution for all (Unspecified)
system.cpu3.allLatencyDist::samples             57547                       # delay distribution for all (Unspecified)
system.cpu3.allLatencyDist::mean         245441.013432                       # delay distribution for all (Unspecified)
system.cpu3.allLatencyDist::stdev        285636.820256                       # delay distribution for all (Unspecified)
system.cpu3.allLatencyDist::underflows              0      0.00%      0.00% # delay distribution for all (Unspecified)
system.cpu3.allLatencyDist               |           0      0.00%      0.00% |           0      0.00%      0.00% |           0      0.00%      0.00% |           0      0.00%      0.00% |           0      0.00%      0.00% |           0      0.00%      0.00% |           0      0.00%      0.00% |           0      0.00%      0.00% |           0      0.00%      0.00% |           0      0.00%      0.00% |       23238     40.38%     40.38% |        1840      3.20%     43.58% |        4248      7.38%     50.96% |         970      1.69%     52.65% |         744      1.29%     53.94% |         617      1.07%     55.01% |         786      1.37%     56.38% |        1594      2.77%     59.15% |        1355      2.35%     61.50% |        1672      2.91%     64.41% |        1603      2.79%     67.19% |        1656      2.88%     70.07% |        1654      2.87%     72.94% |         610      1.06%     74.00% |        2055      3.57%     77.57% |         664      1.15%     78.73% |         351      0.61%     79.34% |         237      0.41%     79.75% |         259      0.45%     80.20% |         236      0.41%     80.61% |         251      0.44%     81.05% |         303      0.53%     81.57% |         395      0.69%     82.26% |         347      0.60%     82.86% |         540      0.94%     83.80% |         268      0.47%     84.27% |         189      0.33%     84.60% |         157      0.27%     84.87% |         192      0.33%     85.20% |         167      0.29%     85.49% |         136      0.24%     85.73% |         267      0.46%     86.19% |         275      0.48%     86.67% |         235      0.41%     87.08% |         128      0.22%     87.30% |         136      0.24%     87.54% |         143      0.25%     87.79% |         180      0.31%     88.10% |         181      0.31%     88.41% |         325      0.56%     88.98% |         193      0.34%     89.31% |         140      0.24%     89.56% |         173      0.30%     89.86% |         158      0.27%     90.13% |         135      0.23%     90.37% |         158      0.27%     90.64% |         205      0.36%     91.00% |         113      0.20%     91.19% |         108      0.19%     91.38% |          97      0.17%     91.55% |         108      0.19%     91.74% |         135      0.23%     91.97% |         108      0.19%     92.16% |         112      0.19%     92.35% |          69      0.12%     92.47% |          82      0.14%     92.62% |          73      0.13%     92.74% |          72      0.13%     92.87% |          72      0.13%     92.99% |          61      0.11%     93.10% |          82      0.14%     93.24% |          93      0.16%     93.40% |          61      0.11%     93.51% |          79      0.14%     93.65% |          75      0.13%     93.78% |          65      0.11%     93.89% |          62      0.11%     94.00% |          64      0.11%     94.11% |          82      0.14%     94.25% |          67      0.12%     94.37% |          64      0.11%     94.48% |          57      0.10%     94.58% |          43      0.07%     94.65% |          44      0.08%     94.73% |          43      0.07%     94.80% |          52      0.09%     94.89% |          43      0.07%     94.97% |          40      0.07%     95.04% |          34      0.06%     95.10% |          24      0.04%     95.14% |          31      0.05%     95.19% |          30      0.05%     95.25% |          35      0.06%     95.31% |          27      0.05%     95.35% |          38      0.07%     95.42% |          36      0.06%     95.48% |          33      0.06%     95.54% |          41      0.07%     95.61% |          39      0.07%     95.68% |          46      0.08%     95.76% |          48      0.08%     95.84% |          57      0.10%     95.94% |          64      0.11%     96.05% |          54      0.09%     96.15% |          58      0.10%     96.25% |          75      0.13%     96.38% |          79      0.14%     96.51% |          87      0.15%     96.67% |          90      0.16%     96.82% |          89      0.15%     96.98% |         107      0.19%     97.16% |         122      0.21%     97.37% |         144      0.25%     97.62% |         131      0.23%     97.85% |         133      0.23%     98.08% |         145      0.25%     98.34% |         133      0.23%     98.57% |         134      0.23%     98.80% |         130      0.23%     99.03% |         128      0.22%     99.25% |          93      0.16%     99.41% |          59      0.10%     99.51% |          40      0.07%     99.58% |          30      0.05%     99.63% |          23      0.04%     99.67% |          15      0.03%     99.70% |           8      0.01%     99.71% |          15      0.03%     99.74% |           6      0.01%     99.75% |           9      0.02%     99.77% |           9      0.02%     99.78% |           9      0.02%     99.80% |           7      0.01%     99.81% |           5      0.01%     99.82% |           8      0.01%     99.83% |           8      0.01%     99.85% |           8      0.01%     99.86% |           5      0.01%     99.87% |           4      0.01%     99.87% |           2      0.00%     99.88% |           5      0.01%     99.89% |           3      0.01%     99.89% |           2      0.00%     99.90% |           4      0.01%     99.90% |           1      0.00%     99.90% |           3      0.01%     99.91% |           3      0.01%     99.91% |           2      0.00%     99.92% |           0      0.00%     99.92% |           0      0.00%     99.92% |           2      0.00%     99.92% |           1      0.00%     99.92% |           0      0.00%     99.92% |           1      0.00%     99.93% |           2      0.00%     99.93% |           0      0.00%     99.93% |           0      0.00%     99.93% |           0      0.00%     99.93% |           1      0.00%     99.93% |           0      0.00%     99.93% |           0      0.00%     99.93% # delay distribution for all (Unspecified)
system.cpu3.allLatencyDist::overflows              40      0.07%    100.00% # delay distribution for all (Unspecified)
system.cpu3.allLatencyDist::min_value          105000                       # delay distribution for all (Unspecified)
system.cpu3.allLatencyDist::max_value        10345000                       # delay distribution for all (Unspecified)
system.cpu3.allLatencyDist::total               57547                       # delay distribution for all (Unspecified)
system.cpu3.loadLatencyDist::bucket_size        10000                       # delay distribution for loads (Unspecified)
system.cpu3.loadLatencyDist::min_bucket             0                       # delay distribution for loads (Unspecified)
system.cpu3.loadLatencyDist::max_bucket       1600000                       # delay distribution for loads (Unspecified)
system.cpu3.loadLatencyDist::samples            55376                       # delay distribution for loads (Unspecified)
system.cpu3.loadLatencyDist::mean        242985.083791                       # delay distribution for loads (Unspecified)
system.cpu3.loadLatencyDist::stdev       286578.605723                       # delay distribution for loads (Unspecified)
system.cpu3.loadLatencyDist::underflows             0      0.00%      0.00% # delay distribution for loads (Unspecified)
system.cpu3.loadLatencyDist              |           0      0.00%      0.00% |           0      0.00%      0.00% |           0      0.00%      0.00% |           0      0.00%      0.00% |           0      0.00%      0.00% |           0      0.00%      0.00% |           0      0.00%      0.00% |           0      0.00%      0.00% |           0      0.00%      0.00% |           0      0.00%      0.00% |       23238     41.96%     41.96% |        1840      3.32%     45.29% |        4248      7.67%     52.96% |         970      1.75%     54.71% |         744      1.34%     56.05% |         617      1.11%     57.17% |         786      1.42%     58.59% |        1594      2.88%     61.47% |        1355      2.45%     63.91% |        1672      3.02%     66.93% |        1603      2.89%     69.83% |        1656      2.99%     72.82% |        1654      2.99%     75.80% |         610      1.10%     76.91% |         500      0.90%     77.81% |         392      0.71%     78.52% |         306      0.55%     79.07% |         221      0.40%     79.47% |         247      0.45%     79.91% |         220      0.40%     80.31% |         241      0.44%     80.75% |         276      0.50%     81.24% |         365      0.66%     81.90% |         338      0.61%     82.51% |         530      0.96%     83.47% |         265      0.48%     83.95% |         179      0.32%     84.27% |         151      0.27%     84.55% |         184      0.33%     84.88% |         160      0.29%     85.17% |         136      0.25%     85.41% |         260      0.47%     85.88% |         275      0.50%     86.38% |         229      0.41%     86.79% |         126      0.23%     87.02% |         131      0.24%     87.26% |         139      0.25%     87.51% |         179      0.32%     87.83% |         177      0.32%     88.15% |         325      0.59%     88.74% |         189      0.34%     89.08% |         139      0.25%     89.33% |         167      0.30%     89.63% |         158      0.29%     89.92% |         135      0.24%     90.16% |         156      0.28%     90.44% |         205      0.37%     90.81% |         112      0.20%     91.01% |         107      0.19%     91.21% |          96      0.17%     91.38% |         108      0.20%     91.58% |         135      0.24%     91.82% |         108      0.20%     92.01% |         112      0.20%     92.22% |          68      0.12%     92.34% |          82      0.15%     92.49% |          72      0.13%     92.62% |          72      0.13%     92.75% |          72      0.13%     92.88% |          61      0.11%     92.99% |          81      0.15%     93.13% |          92      0.17%     93.30% |          60      0.11%     93.41% |          79      0.14%     93.55% |          74      0.13%     93.68% |          65      0.12%     93.80% |          62      0.11%     93.91% |          63      0.11%     94.03% |          82      0.15%     94.18% |          66      0.12%     94.30% |          63      0.11%     94.41% |          57      0.10%     94.51% |          43      0.08%     94.59% |          44      0.08%     94.67% |          43      0.08%     94.75% |          51      0.09%     94.84% |          42      0.08%     94.91% |          39      0.07%     94.99% |          34      0.06%     95.05% |          24      0.04%     95.09% |          31      0.06%     95.15% |          30      0.05%     95.20% |          34      0.06%     95.26% |          27      0.05%     95.31% |          38      0.07%     95.38% |          35      0.06%     95.44% |          32      0.06%     95.50% |          41      0.07%     95.57% |          39      0.07%     95.64% |          46      0.08%     95.73% |          48      0.09%     95.81% |          57      0.10%     95.92% |          63      0.11%     96.03% |          52      0.09%     96.12% |          58      0.10%     96.23% |          75      0.14%     96.36% |          79      0.14%     96.51% |          87      0.16%     96.66% |          90      0.16%     96.83% |          89      0.16%     96.99% |         107      0.19%     97.18% |         121      0.22%     97.40% |         142      0.26%     97.66% |         131      0.24%     97.89% |         133      0.24%     98.13% |         145      0.26%     98.39% |         132      0.24%     98.63% |         134      0.24%     98.87% |         128      0.23%     99.11% |         127      0.23%     99.34% |          93      0.17%     99.50% |          59      0.11%     99.61% |          39      0.07%     99.68% |          26      0.05%     99.73% |          23      0.04%     99.77% |          11      0.02%     99.79% |           8      0.01%     99.80% |          11      0.02%     99.82% |           5      0.01%     99.83% |           6      0.01%     99.84% |           7      0.01%     99.86% |           9      0.02%     99.87% |           5      0.01%     99.88% |           5      0.01%     99.89% |           7      0.01%     99.90% |           6      0.01%     99.91% |           7      0.01%     99.93% |           3      0.01%     99.93% |           1      0.00%     99.93% |           1      0.00%     99.93% |           1      0.00%     99.94% |           1      0.00%     99.94% |           0      0.00%     99.94% |           2      0.00%     99.94% |           0      0.00%     99.94% |           1      0.00%     99.94% |           1      0.00%     99.95% |           1      0.00%     99.95% |           0      0.00%     99.95% |           0      0.00%     99.95% |           1      0.00%     99.95% |           1      0.00%     99.95% |           0      0.00%     99.95% |           1      0.00%     99.95% |           1      0.00%     99.95% |           0      0.00%     99.95% |           0      0.00%     99.95% |           0      0.00%     99.95% |           1      0.00%     99.96% |           0      0.00%     99.96% |           0      0.00%     99.96% # delay distribution for loads (Unspecified)
system.cpu3.loadLatencyDist::overflows             24      0.04%    100.00% # delay distribution for loads (Unspecified)
system.cpu3.loadLatencyDist::min_value         105000                       # delay distribution for loads (Unspecified)
system.cpu3.loadLatencyDist::max_value       10345000                       # delay distribution for loads (Unspecified)
system.cpu3.loadLatencyDist::total              55376                       # delay distribution for loads (Unspecified)
system.cpu3.storeLatencyDist::bucket_size        10000                       # delay distribution for stores (Unspecified)
system.cpu3.storeLatencyDist::min_bucket            0                       # delay distribution for stores (Unspecified)
system.cpu3.storeLatencyDist::max_bucket      1600000                       # delay distribution for stores (Unspecified)
system.cpu3.storeLatencyDist::samples            2171                       # delay distribution for stores (Unspecified)
system.cpu3.storeLatencyDist::mean       308084.753570                       # delay distribution for stores (Unspecified)
system.cpu3.storeLatencyDist::stdev      252574.811115                       # delay distribution for stores (Unspecified)
system.cpu3.storeLatencyDist::underflows            0      0.00%      0.00% # delay distribution for stores (Unspecified)
system.cpu3.storeLatencyDist             |           0      0.00%      0.00% |           0      0.00%      0.00% |           0      0.00%      0.00% |           0      0.00%      0.00% |           0      0.00%      0.00% |           0      0.00%      0.00% |           0      0.00%      0.00% |           0      0.00%      0.00% |           0      0.00%      0.00% |           0      0.00%      0.00% |           0      0.00%      0.00% |           0      0.00%      0.00% |           0      0.00%      0.00% |           0      0.00%      0.00% |           0      0.00%      0.00% |           0      0.00%      0.00% |           0      0.00%      0.00% |           0      0.00%      0.00% |           0      0.00%      0.00% |           0      0.00%      0.00% |           0      0.00%      0.00% |           0      0.00%      0.00% |           0      0.00%      0.00% |           0      0.00%      0.00% |        1555     71.63%     71.63% |         272     12.53%     84.15% |          45      2.07%     86.23% |          16      0.74%     86.96% |          12      0.55%     87.52% |          16      0.74%     88.25% |          10      0.46%     88.71% |          27      1.24%     89.96% |          30      1.38%     91.34% |           9      0.41%     91.75% |          10      0.46%     92.22% |           3      0.14%     92.35% |          10      0.46%     92.81% |           6      0.28%     93.09% |           8      0.37%     93.46% |           7      0.32%     93.78% |           0      0.00%     93.78% |           7      0.32%     94.10% |           0      0.00%     94.10% |           6      0.28%     94.38% |           2      0.09%     94.47% |           5      0.23%     94.70% |           4      0.18%     94.89% |           1      0.05%     94.93% |           4      0.18%     95.12% |           0      0.00%     95.12% |           4      0.18%     95.30% |           1      0.05%     95.35% |           6      0.28%     95.62% |           0      0.00%     95.62% |           0      0.00%     95.62% |           2      0.09%     95.72% |           0      0.00%     95.72% |           1      0.05%     95.76% |           1      0.05%     95.81% |           1      0.05%     95.85% |           0      0.00%     95.85% |           0      0.00%     95.85% |           0      0.00%     95.85% |           0      0.00%     95.85% |           1      0.05%     95.90% |           0      0.00%     95.90% |           1      0.05%     95.95% |           0      0.00%     95.95% |           0      0.00%     95.95% |           0      0.00%     95.95% |           1      0.05%     95.99% |           1      0.05%     96.04% |           1      0.05%     96.08% |           0      0.00%     96.08% |           1      0.05%     96.13% |           0      0.00%     96.13% |           0      0.00%     96.13% |           1      0.05%     96.18% |           0      0.00%     96.18% |           1      0.05%     96.22% |           1      0.05%     96.27% |           0      0.00%     96.27% |           0      0.00%     96.27% |           0      0.00%     96.27% |           0      0.00%     96.27% |           1      0.05%     96.32% |           1      0.05%     96.36% |           1      0.05%     96.41% |           0      0.00%     96.41% |           0      0.00%     96.41% |           0      0.00%     96.41% |           0      0.00%     96.41% |           1      0.05%     96.45% |           0      0.00%     96.45% |           0      0.00%     96.45% |           1      0.05%     96.50% |           1      0.05%     96.55% |           0      0.00%     96.55% |           0      0.00%     96.55% |           0      0.00%     96.55% |           0      0.00%     96.55% |           0      0.00%     96.55% |           1      0.05%     96.59% |           2      0.09%     96.68% |           0      0.00%     96.68% |           0      0.00%     96.68% |           0      0.00%     96.68% |           0      0.00%     96.68% |           0      0.00%     96.68% |           0      0.00%     96.68% |           0      0.00%     96.68% |           1      0.05%     96.73% |           2      0.09%     96.82% |           0      0.00%     96.82% |           0      0.00%     96.82% |           0      0.00%     96.82% |           1      0.05%     96.87% |           0      0.00%     96.87% |           2      0.09%     96.96% |           1      0.05%     97.01% |           0      0.00%     97.01% |           0      0.00%     97.01% |           1      0.05%     97.05% |           4      0.18%     97.24% |           0      0.00%     97.24% |           4      0.18%     97.42% |           0      0.00%     97.42% |           4      0.18%     97.60% |           1      0.05%     97.65% |           3      0.14%     97.79% |           2      0.09%     97.88% |           0      0.00%     97.88% |           2      0.09%     97.97% |           0      0.00%     97.97% |           1      0.05%     98.02% |           2      0.09%     98.11% |           1      0.05%     98.16% |           2      0.09%     98.25% |           3      0.14%     98.39% |           1      0.05%     98.43% |           4      0.18%     98.62% |           2      0.09%     98.71% |           2      0.09%     98.80% |           2      0.09%     98.89% |           1      0.05%     98.94% |           2      0.09%     99.03% |           2      0.09%     99.12% |           1      0.05%     99.17% |           0      0.00%     99.17% |           0      0.00%     99.17% |           1      0.05%     99.22% |           0      0.00%     99.22% |           0      0.00%     99.22% |           0      0.00%     99.22% |           1      0.05%     99.26% |           0      0.00%     99.26% |           0      0.00%     99.26% |           0      0.00%     99.26% |           0      0.00%     99.26% |           0      0.00%     99.26% |           0      0.00%     99.26% # delay distribution for stores (Unspecified)
system.cpu3.storeLatencyDist::overflows            16      0.74%    100.00% # delay distribution for stores (Unspecified)
system.cpu3.storeLatencyDist::min_value        249000                       # delay distribution for stores (Unspecified)
system.cpu3.storeLatencyDist::max_value       2412000                       # delay distribution for stores (Unspecified)
system.cpu3.storeLatencyDist::total              2171                       # delay distribution for stores (Unspecified)
system.cpu3.initToCoalesceLatency::bucket_size        10000                       # Ticks from vmem inst initiateAcc to coalescer issue (Unspecified)
system.cpu3.initToCoalesceLatency::min_bucket            0                       # Ticks from vmem inst initiateAcc to coalescer issue (Unspecified)
system.cpu3.initToCoalesceLatency::max_bucket      1600000                       # Ticks from vmem inst initiateAcc to coalescer issue (Unspecified)
system.cpu3.initToCoalesceLatency::samples            0                       # Ticks from vmem inst initiateAcc to coalescer issue (Unspecified)
system.cpu3.initToCoalesceLatency::mean           nan                       # Ticks from vmem inst initiateAcc to coalescer issue (Unspecified)
system.cpu3.initToCoalesceLatency::stdev          nan                       # Ticks from vmem inst initiateAcc to coalescer issue (Unspecified)
system.cpu3.initToCoalesceLatency::underflows            0                       # Ticks from vmem inst initiateAcc to coalescer issue (Unspecified)
[...]
system.cpu3.cacheBlockRoundTrip7::overflows            0                       # Coalsr-to-coalsr time for the Nth cache block in an inst (Unspecified)
system.cpu3.cacheBlockRoundTrip7::min_value            0                       # Coalsr-to-coalsr time for the Nth cache block in an inst (Unspecified)
system.cpu3.cacheBlockRoundTrip7::max_value            0                       # Coalsr-to-coalsr time for the Nth cache block in an inst (Unspecified)
system.cpu3.cacheBlockRoundTrip7::total             0                       # Coalsr-to-coalsr time for the Nth cache block in an inst (Unspecified)
system.cpu3.cacheBlockRoundTrip8::bucket_size        10000                       # Coalsr-to-coalsr time for the Nth cache block in an inst (Unspecified)
system.cpu3.cacheBlockRoundTrip8::min_bucket            0                       # Coalsr-to-coalsr time for the Nth cache block in an inst (Unspecified)
system.cpu3.cacheBlockRoundTrip8::max_bucket      1600000                       # Coalsr-to-coalsr time for the Nth cache block in an inst (Unspecified)
system.cpu3.cacheBlockRoundTrip8::samples            0                       # Coalsr-to-coalsr time for the Nth cache block in an inst (Unspecified)
system.cpu3.cacheBlockRoundTrip8::mean            nan                       # Coalsr-to-coalsr time for the Nth cache block in an inst (Unspecified)
system.cpu3.cacheBlockRoundTrip8::stdev           nan                       # Coalsr-to-coalsr time for the Nth cache block in an inst (Unspecified)
system.cpu3.cacheBlockRoundTrip8::underflows            0                       # Coalsr-to-coalsr time for the Nth cache block in an inst (Unspecified)
system.cpu3.cacheBlockRoundTrip8         |           0                       |           0                       |           0                       |           0                       |           0                       |           0                       |           0                       |           0                       |           0                       |           0                       |           0                       |           0                       |           0                       |           0                       |           0                       |           0                       |           0                       |           0                       |           0                       |           0                       |           0                       |           0                       |           0                       |           0                       |           0                       |           0                       |           0                       |           0                       |           0                       |           0                       |           0                       |           0                       |           0                       |           0                       |           0                       |           0                       |           0                       |           0                       |           0                       |           0                       |           0                       |           0                       |           0                       |           0                       |           0                       |           0                       |           0                       |           0                       |           0                       |           0                       |           0                       |           0                       |           0                       |           0                       |           0                       |           0                       |           0                       |           0                       |           0                       |           0                       |           0                       |           0                       |           0                       |           0                       |           0                       |           0                       |           0                       |           0                       |           0                       |           0                       |           0                       |           0                       |           0                       |           0                       |           0                       |           0                       |           0                       |           0                       |           0                       |           0                       |           0                       |           0                       |           0                       |           0                       |           0                       |           0                       |           0                       |           0                       |           0                       |           0                       |           0                       |           0                       |           0                       |           0                       |           0                       |           0                       |           0                       |           0                       |           0                       |           0                       |           0                       |           0                       |           0                       |           0                       |           0                       |           0                       |           0                       |           0                       |           0                       |           0                       |           0                       |           0                       |           0                       |           0                       |           0                       |           0                       |           0                       |           0                       |           0                       |           0                       |           0                       |           0                       |           0                       |           0                       |           0                       |           0                       |           0                       |           0                       |           0                       |           0                       |           0                       |           0                       |           0                       |           0                       |           0                       |           0                       |           0                       |           0                       |           0                       |           0                       |           0                       |           0                       |           0                       |           0                       |           0                       |           0                       |           0                       |           0                       |           0                       |           0                       |           0                       |           0                       |           0                       |           0                       |           0                       |           0                       |           0                       |           0                       |           0                       |           0                       |           0                       # Coalsr-to-coalsr time for the Nth cache block in an inst (Unspecified)
system.cpu3.cacheBlockRoundTrip8::overflows            0                       # Coalsr-to-coalsr time for the Nth cache block in an inst (Unspecified)
system.cpu3.cacheBlockRoundTrip8::min_value            0                       # Coalsr-to-coalsr time for the Nth cache block in an inst (Unspecified)
system.cpu3.cacheBlockRoundTrip8::max_value            0                       # Coalsr-to-coalsr time for the Nth cache block in an inst (Unspecified)
system.cpu3.cacheBlockRoundTrip8::total             0                       # Coalsr-to-coalsr time for the Nth cache block in an inst (Unspecified)
system.cpu3.cacheBlockRoundTrip9::bucket_size        10000                       # Coalsr-to-coalsr time for the Nth cache block in an inst (Unspecified)
system.cpu3.cacheBlockRoundTrip9::min_bucket            0                       # Coalsr-to-coalsr time for the Nth cache block in an inst (Unspecified)
system.cpu3.cacheBlockRoundTrip9::max_bucket      1600000                       # Coalsr-to-coalsr time for the Nth cache block in an inst (Unspecified)
system.cpu3.cacheBlockRoundTrip9::samples            0                       # Coalsr-to-coalsr time for the Nth cache block in an inst (Unspecified)
system.cpu3.cacheBlockRoundTrip9::mean            nan                       # Coalsr-to-coalsr time for the Nth cache block in an inst (Unspecified)
system.cpu3.cacheBlockRoundTrip9::stdev           nan                       # Coalsr-to-coalsr time for the Nth cache block in an inst (Unspecified)
system.cpu3.cacheBlockRoundTrip9::underflows            0                       # Coalsr-to-coalsr time for the Nth cache block in an inst (Unspecified)
system.cpu3.cacheBlockRoundTrip9         |           0                       |           0                       |           0                       |           0                       |           0                       |           0                       |           0                       |           0                       |           0                       |           0                       |           0                       |           0                       |           0                       |           0                       |           0                       |           0                       |           0                       |           0                       |           0                       |           0                       |           0                       |           0                       |           0                       |           0                       |           0                       |           0                       |           0                       |           0                       |           0                       |           0                       |           0                       |           0                       |           0                       |           0                       |           0                       |           0                       |           0                       |           0                       |           0                       |           0                       |           0                       |           0                       |           0                       |           0                       |           0                       |           0                       |           0                       |           0                       |           0                       |           0                       |           0                       |           0                       |           0                       |           0                       |           0                       |           0                       |           0                       |           0                       |           0                       |           0                       |           0                       |           0                       |           0                       |           0                       |           0                       |           0                       |           0                       |           0                       |           0                       |           0                       |           0                       |           0                       |           0                       |           0                       |           0                       |           0                       |           0                       |           0                       |           0                       |           0                       |           0                       |           0                       |           0                       |           0                       |           0                       |           0                       |           0                       |           0                       |           0                       |           0                       |           0                       |           0                       |           0                       |           0                       |           0                       |           0                       |           0                       |           0                       |           0                       |           0                       |           0                       |           0                       |           0                       |           0                       |           0                       |           0                       |           0                       |           0                       |           0                       |           0                       |           0                       |           0                       |           0                       |           0                       |           0                       |           0                       |           0                       |           0                       |           0                       |           0                       |           0                       |           0                       |           0                       |           0                       |           0                       |           0                       |           0                       |           0                       |           0                       |           0                       |           0                       |           0                       |           0                       |           0                       |           0                       |           0                       |           0                       |           0                       |           0                       |           0                       |           0                       |           0                       |           0                       |           0                       |           0                       |           0                       |           0                       |           0                       |           0                       |           0                       |           0                       |           0                       |           0                       |           0                       |           0                       |           0                       |           0                       |           0                       |           0                       |           0                       |           0                       # Coalsr-to-coalsr time for the Nth cache block in an inst (Unspecified)
system.cpu3.cacheBlockRoundTrip9::overflows            0                       # Coalsr-to-coalsr time for the Nth cache block in an inst (Unspecified)
system.cpu3.cacheBlockRoundTrip9::min_value            0                       # Coalsr-to-coalsr time for the Nth cache block in an inst (Unspecified)
system.cpu3.cacheBlockRoundTrip9::max_value            0                       # Coalsr-to-coalsr time for the Nth cache block in an inst (Unspecified)
system.cpu3.cacheBlockRoundTrip9::total             0                       # Coalsr-to-coalsr time for the Nth cache block in an inst (Unspecified)

---------- End Simulation Statistics   ----------
