
---------- Begin Simulation Statistics ----------
simSeconds                                   0.751951                       # Number of seconds simulated (Second)
simTicks                                 751950885500                       # Number of ticks simulated (Tick)
finalTick                                751950885500                       # Number of ticks from beginning of simulation (restored from checkpoints and never reset) (Tick)
simFreq                                  1000000000000                       # The number of ticks per simulated second ((Tick/Second))
hostSeconds                                   1460.09                       # Real time elapsed on the host (Second)
hostTickRate                                515002852                       # The number of ticks simulated per host second (ticks/s) ((Tick/Second))
hostMemory                                   21931148                       # Number of bytes of host memory used (Byte)
simInsts                                    377028651                       # Number of instructions simulated (Count)
simOps                                      729175861                       # Number of ops (including micro ops) simulated (Count)
hostInstRate                                   258223                       # Simulator instruction rate (inst/s) ((Count/Second))
hostOpRate                                     499404                       # Simulator op (including micro ops) rate (op/s) ((Count/Second))
system.work_item_type0::samples                     1                       # Run time stat forwork_item_type0 (Unspecified)
system.work_item_type0::mean             101802253500                       # Run time stat forwork_item_type0 (Unspecified)
system.work_item_type0::gmean            101802253500.000061                       # Run time stat forwork_item_type0 (Unspecified)
system.work_item_type0::stdev                     nan                       # Run time stat forwork_item_type0 (Unspecified)
system.work_item_type0::0-8.58993e+09               0      0.00%      0.00% # Run time stat forwork_item_type0 (Unspecified)
system.work_item_type0::8.58993e+09-1.71799e+10            0      0.00%      0.00% # Run time stat forwork_item_type0 (Unspecified)
system.work_item_type0::1.71799e+10-2.57698e+10            0      0.00%      0.00% # Run time stat forwork_item_type0 (Unspecified)
system.work_item_type0::2.57698e+10-3.43597e+10            0      0.00%      0.00% # Run time stat forwork_item_type0 (Unspecified)
system.work_item_type0::3.43597e+10-4.29497e+10            0      0.00%      0.00% # Run time stat forwork_item_type0 (Unspecified)
system.work_item_type0::4.29497e+10-5.15396e+10            0      0.00%      0.00% # Run time stat forwork_item_type0 (Unspecified)
system.work_item_type0::5.15396e+10-6.01295e+10            0      0.00%      0.00% # Run time stat forwork_item_type0 (Unspecified)
system.work_item_type0::6.01295e+10-6.87195e+10            0      0.00%      0.00% # Run time stat forwork_item_type0 (Unspecified)
system.work_item_type0::6.87195e+10-7.73094e+10            0      0.00%      0.00% # Run time stat forwork_item_type0 (Unspecified)
system.work_item_type0::7.73094e+10-8.58993e+10            0      0.00%      0.00% # Run time stat forwork_item_type0 (Unspecified)
system.work_item_type0::8.58993e+10-9.44893e+10            0      0.00%      0.00% # Run time stat forwork_item_type0 (Unspecified)
system.work_item_type0::9.44893e+10-1.03079e+11            1    100.00%    100.00% # Run time stat forwork_item_type0 (Unspecified)
system.work_item_type0::1.03079e+11-1.11669e+11            0      0.00%    100.00% # Run time stat forwork_item_type0 (Unspecified)
system.work_item_type0::1.11669e+11-1.20259e+11            0      0.00%    100.00% # Run time stat forwork_item_type0 (Unspecified)
system.work_item_type0::1.20259e+11-1.28849e+11            0      0.00%    100.00% # Run time stat forwork_item_type0 (Unspecified)
system.work_item_type0::1.28849e+11-1.37439e+11            0      0.00%    100.00% # Run time stat forwork_item_type0 (Unspecified)
system.work_item_type0::1.37439e+11-1.46029e+11            0      0.00%    100.00% # Run time stat forwork_item_type0 (Unspecified)
system.work_item_type0::1.46029e+11-1.54619e+11            0      0.00%    100.00% # Run time stat forwork_item_type0 (Unspecified)
system.work_item_type0::1.54619e+11-1.63209e+11            0      0.00%    100.00% # Run time stat forwork_item_type0 (Unspecified)
system.work_item_type0::1.63209e+11-1.71799e+11            0      0.00%    100.00% # Run time stat forwork_item_type0 (Unspecified)
system.work_item_type0::total                       1                       # Run time stat forwork_item_type0 (Unspecified)
system.clk_domain.clock                          1000                       # Clock period in ticks (Tick)
system.cpu0.numCycles                      1503901771                       # Number of cpu cycles simulated (Cycle)
system.cpu0.numWorkItemsStarted                     1                       # Number of work items this cpu started (Count)
system.cpu0.numWorkItemsCompleted                   1                       # Number of work items this cpu completed (Count)
system.cpu0.clk_domain.clock                      500                       # Clock period in ticks (Tick)
system.cpu0.clk_domain.voltage_domain.voltage            1                       # Voltage in Volts (Volt)
system.cpu0.exec_context.thread_0.numInsts    372846340                       # Number of instructions committed (Count)
system.cpu0.exec_context.thread_0.numOps    720688870                       # Number of ops (including micro ops) committed (Count)
system.cpu0.exec_context.thread_0.numIntAluAccesses    700124826                       # Number of integer alu accesses (Count)
system.cpu0.exec_context.thread_0.numFpAluAccesses     16176015                       # Number of float alu accesses (Count)
system.cpu0.exec_context.thread_0.numVecAluAccesses            0                       # Number of vector alu accesses (Count)
system.cpu0.exec_context.thread_0.numCallsReturns     15176990                       # Number of times a function call or return occured (Count)
system.cpu0.exec_context.thread_0.numCondCtrlInsts     66152713                       # Number of instructions that are conditional controls (Count)
system.cpu0.exec_context.thread_0.numIntInsts    700124826                       # Number of integer instructions (Count)
system.cpu0.exec_context.thread_0.numFpInsts     16176015                       # Number of float instructions (Count)
system.cpu0.exec_context.thread_0.numVecInsts            0                       # Number of vector instructions (Count)
system.cpu0.exec_context.thread_0.numIntRegReads    832028743                       # Number of times the integer registers were read (Count)
system.cpu0.exec_context.thread_0.numIntRegWrites    482141854                       # Number of times the integer registers were written (Count)
system.cpu0.exec_context.thread_0.numFpRegReads     18394899                       # Number of times the floating registers were read (Count)
system.cpu0.exec_context.thread_0.numFpRegWrites     10326835                       # Number of times the floating registers were written (Count)
system.cpu0.exec_context.thread_0.numVecRegReads            0                       # Number of times the vector registers were read (Count)
system.cpu0.exec_context.thread_0.numVecRegWrites            0                       # Number of times the vector registers were written (Count)
system.cpu0.exec_context.thread_0.numVecPredRegReads            0                       # Number of times the predicate registers were read (Count)
system.cpu0.exec_context.thread_0.numVecPredRegWrites            0                       # Number of times the predicate registers were written (Count)
system.cpu0.exec_context.thread_0.numCCRegReads    407567923                       # Number of times the CC registers were read (Count)
system.cpu0.exec_context.thread_0.numCCRegWrites    199485692                       # Number of times the CC registers were written (Count)
system.cpu0.exec_context.thread_0.numMiscRegReads    331541738                       # Number of times the Misc registers were read (Count)
system.cpu0.exec_context.thread_0.numMiscRegWrites         4531                       # Number of times the Misc registers were written (Count)
system.cpu0.exec_context.thread_0.numMemRefs    140044306                       # Number of memory refs (Count)
system.cpu0.exec_context.thread_0.numLoadInsts     86750918                       # Number of load instructions (Count)
system.cpu0.exec_context.thread_0.numStoreInsts     53293388                       # Number of store instructions (Count)
system.cpu0.exec_context.thread_0.numIdleCycles 8465085.001989                       # Number of idle cycles (Cycle)
system.cpu0.exec_context.thread_0.numBusyCycles 1495436685.998011                       # Number of busy cycles (Cycle)
system.cpu0.exec_context.thread_0.notIdleFraction     0.994371                       # Percentage of non-idle cycles (Ratio)
system.cpu0.exec_context.thread_0.idleFraction     0.005629                       # Percentage of idle cycles (Ratio)
system.cpu0.exec_context.thread_0.numBranches     98220965                       # Number of branches fetched (Count)
system.cpu0.exec_context.thread_0.statExecutedInstType::No_OpClass     13271903      1.83%      1.83% # Class of executed instruction. (Count)
system.cpu0.exec_context.thread_0.statExecutedInstType::IntAlu    562850721     77.62%     79.45% # Class of executed instruction. (Count)
system.cpu0.exec_context.thread_0.statExecutedInstType::IntMult      1242732      0.17%     79.62% # Class of executed instruction. (Count)
system.cpu0.exec_context.thread_0.statExecutedInstType::IntDiv        78522      0.01%     79.64% # Class of executed instruction. (Count)
system.cpu0.exec_context.thread_0.statExecutedInstType::FloatAdd      1781018      0.25%     79.88% # Class of executed instruction. (Count)
system.cpu0.exec_context.thread_0.statExecutedInstType::FloatCmp           51      0.00%     79.88% # Class of executed instruction. (Count)
system.cpu0.exec_context.thread_0.statExecutedInstType::FloatCvt         7122      0.00%     79.88% # Class of executed instruction. (Count)
system.cpu0.exec_context.thread_0.statExecutedInstType::FloatMult           17      0.00%     79.88% # Class of executed instruction. (Count)
system.cpu0.exec_context.thread_0.statExecutedInstType::FloatMultAcc            0      0.00%     79.88% # Class of executed instruction. (Count)
system.cpu0.exec_context.thread_0.statExecutedInstType::FloatDiv           17      0.00%     79.88% # Class of executed instruction. (Count)
system.cpu0.exec_context.thread_0.statExecutedInstType::FloatMisc            0      0.00%     79.88% # Class of executed instruction. (Count)
system.cpu0.exec_context.thread_0.statExecutedInstType::FloatSqrt            0      0.00%     79.88% # Class of executed instruction. (Count)
system.cpu0.exec_context.thread_0.statExecutedInstType::SimdAdd        19008      0.00%     79.88% # Class of executed instruction. (Count)
system.cpu0.exec_context.thread_0.statExecutedInstType::SimdAddAcc            0      0.00%     79.88% # Class of executed instruction. (Count)
system.cpu0.exec_context.thread_0.statExecutedInstType::SimdAlu       899145      0.12%     80.01% # Class of executed instruction. (Count)
system.cpu0.exec_context.thread_0.statExecutedInstType::SimdCmp         3198      0.00%     80.01% # Class of executed instruction. (Count)
system.cpu0.exec_context.thread_0.statExecutedInstType::SimdCvt       650086      0.09%     80.10% # Class of executed instruction. (Count)
system.cpu0.exec_context.thread_0.statExecutedInstType::SimdMisc      3422614      0.47%     80.57% # Class of executed instruction. (Count)
system.cpu0.exec_context.thread_0.statExecutedInstType::SimdMult            0      0.00%     80.57% # Class of executed instruction. (Count)
system.cpu0.exec_context.thread_0.statExecutedInstType::SimdMultAcc            0      0.00%     80.57% # Class of executed instruction. (Count)
system.cpu0.exec_context.thread_0.statExecutedInstType::SimdShift         9022      0.00%     80.57% # Class of executed instruction. (Count)
system.cpu0.exec_context.thread_0.statExecutedInstType::SimdShiftAcc            0      0.00%     80.57% # Class of executed instruction. (Count)
system.cpu0.exec_context.thread_0.statExecutedInstType::SimdDiv            0      0.00%     80.57% # Class of executed instruction. (Count)
system.cpu0.exec_context.thread_0.statExecutedInstType::SimdSqrt            0      0.00%     80.57% # Class of executed instruction. (Count)
system.cpu0.exec_context.thread_0.statExecutedInstType::SimdFloatAdd        92610      0.01%     80.58% # Class of executed instruction. (Count)
system.cpu0.exec_context.thread_0.statExecutedInstType::SimdFloatAlu            0      0.00%     80.58% # Class of executed instruction. (Count)
system.cpu0.exec_context.thread_0.statExecutedInstType::SimdFloatCmp            0      0.00%     80.58% # Class of executed instruction. (Count)
system.cpu0.exec_context.thread_0.statExecutedInstType::SimdFloatCvt       555721      0.08%     80.66% # Class of executed instruction. (Count)
system.cpu0.exec_context.thread_0.statExecutedInstType::SimdFloatDiv            5      0.00%     80.66% # Class of executed instruction. (Count)
system.cpu0.exec_context.thread_0.statExecutedInstType::SimdFloatMisc            0      0.00%     80.66% # Class of executed instruction. (Count)
system.cpu0.exec_context.thread_0.statExecutedInstType::SimdFloatMult       185245      0.03%     80.69% # Class of executed instruction. (Count)
system.cpu0.exec_context.thread_0.statExecutedInstType::SimdFloatMultAcc            0      0.00%     80.69% # Class of executed instruction. (Count)
system.cpu0.exec_context.thread_0.statExecutedInstType::SimdFloatSqrt            0      0.00%     80.69% # Class of executed instruction. (Count)
system.cpu0.exec_context.thread_0.statExecutedInstType::SimdReduceAdd            0      0.00%     80.69% # Class of executed instruction. (Count)
system.cpu0.exec_context.thread_0.statExecutedInstType::SimdReduceAlu            0      0.00%     80.69% # Class of executed instruction. (Count)
system.cpu0.exec_context.thread_0.statExecutedInstType::SimdReduceCmp            0      0.00%     80.69% # Class of executed instruction. (Count)
system.cpu0.exec_context.thread_0.statExecutedInstType::SimdFloatReduceAdd            0      0.00%     80.69% # Class of executed instruction. (Count)
system.cpu0.exec_context.thread_0.statExecutedInstType::SimdFloatReduceCmp            0      0.00%     80.69% # Class of executed instruction. (Count)
system.cpu0.exec_context.thread_0.statExecutedInstType::SimdAes            0      0.00%     80.69% # Class of executed instruction. (Count)
system.cpu0.exec_context.thread_0.statExecutedInstType::SimdAesMix            0      0.00%     80.69% # Class of executed instruction. (Count)
system.cpu0.exec_context.thread_0.statExecutedInstType::SimdSha1Hash            0      0.00%     80.69% # Class of executed instruction. (Count)
system.cpu0.exec_context.thread_0.statExecutedInstType::SimdSha1Hash2            0      0.00%     80.69% # Class of executed instruction. (Count)
system.cpu0.exec_context.thread_0.statExecutedInstType::SimdSha256Hash            0      0.00%     80.69% # Class of executed instruction. (Count)
system.cpu0.exec_context.thread_0.statExecutedInstType::SimdSha256Hash2            0      0.00%     80.69% # Class of executed instruction. (Count)
system.cpu0.exec_context.thread_0.statExecutedInstType::SimdShaSigma2            0      0.00%     80.69% # Class of executed instruction. (Count)
system.cpu0.exec_context.thread_0.statExecutedInstType::SimdShaSigma3            0      0.00%     80.69% # Class of executed instruction. (Count)
system.cpu0.exec_context.thread_0.statExecutedInstType::SimdPredAlu            0      0.00%     80.69% # Class of executed instruction. (Count)
system.cpu0.exec_context.thread_0.statExecutedInstType::MemRead     84157620     11.61%     92.29% # Class of executed instruction. (Count)
system.cpu0.exec_context.thread_0.statExecutedInstType::MemWrite     48450717      6.68%     98.97% # Class of executed instruction. (Count)
system.cpu0.exec_context.thread_0.statExecutedInstType::FloatMemRead      2593298      0.36%     99.33% # Class of executed instruction. (Count)
system.cpu0.exec_context.thread_0.statExecutedInstType::FloatMemWrite      4842671      0.67%    100.00% # Class of executed instruction. (Count)
system.cpu0.exec_context.thread_0.statExecutedInstType::IprAccess            0      0.00%    100.00% # Class of executed instruction. (Count)
system.cpu0.exec_context.thread_0.statExecutedInstType::InstPrefetch            0      0.00%    100.00% # Class of executed instruction. (Count)
system.cpu0.exec_context.thread_0.statExecutedInstType::total    725113063                       # Class of executed instruction. (Count)
system.cpu0.interrupts.clk_domain.clock          8000                       # Clock period in ticks (Tick)
system.cpu0.mmu.dtb.rdAccesses               86787325                       # TLB accesses on read requests (Count)
system.cpu0.mmu.dtb.wrAccesses               53295777                       # TLB accesses on write requests (Count)
system.cpu0.mmu.dtb.rdMisses                    18853                       # TLB misses on read requests (Count)
system.cpu0.mmu.dtb.wrMisses                     7339                       # TLB misses on write requests (Count)
system.cpu0.mmu.dtb.walker.power_state.pwrStateResidencyTicks::UNDEFINED 751950885500                       # Cumulative time (in ticks) in various power states (Tick)
system.cpu0.mmu.itb.rdAccesses                      0                       # TLB accesses on read requests (Count)
system.cpu0.mmu.itb.wrAccesses              514467162                       # TLB accesses on write requests (Count)
system.cpu0.mmu.itb.rdMisses                        0                       # TLB misses on read requests (Count)
system.cpu0.mmu.itb.wrMisses                     4039                       # TLB misses on write requests (Count)
system.cpu0.mmu.itb.walker.power_state.pwrStateResidencyTicks::UNDEFINED 751950885500                       # Cumulative time (in ticks) in various power states (Tick)
system.cpu0.power_state.numTransitions              8                       # Number of power state transitions (Count)
system.cpu0.power_state.ticksClkGated::samples            4                       # Distribution of time spent in the clock gated state (Tick)
system.cpu0.power_state.ticksClkGated::mean   1058135625                       # Distribution of time spent in the clock gated state (Tick)
system.cpu0.power_state.ticksClkGated::stdev 2011405020.579204                       # Distribution of time spent in the clock gated state (Tick)
system.cpu0.power_state.ticksClkGated::1000-5e+10            4    100.00%    100.00% # Distribution of time spent in the clock gated state (Tick)
system.cpu0.power_state.ticksClkGated::min_value     37394000                       # Distribution of time spent in the clock gated state (Tick)
system.cpu0.power_state.ticksClkGated::max_value   4075144000                       # Distribution of time spent in the clock gated state (Tick)
system.cpu0.power_state.ticksClkGated::total            4                       # Distribution of time spent in the clock gated state (Tick)
system.cpu0.power_state.pwrStateResidencyTicks::ON 747718343000                       # Cumulative time (in ticks) in various power states (Tick)
system.cpu0.power_state.pwrStateResidencyTicks::CLK_GATED   4232542500                       # Cumulative time (in ticks) in various power states (Tick)
system.cpu0.thread_0.numInsts                       0                       # Number of Instructions committed (Count)
system.cpu0.thread_0.numOps                         0                       # Number of Ops committed (Count)
system.cpu0.thread_0.numMemRefs                     0                       # Number of Memory References (Count)
system.cpu0.workload.numSyscalls              4416410                       # Number of system calls (Count)
system.cpu0.workload.drivers0.device.dispatcher.numKernelLaunched           22                       # number of kernel launched (Unspecified)
system.cpu0.workload.drivers0.device.dispatcher.cyclesWaitingForDispatch       354845                       # number of cycles with outstanding wavefronts that are waiting to be dispatched (Unspecified)
system.cpu0.workload.drivers0.device.hsapp.power_state.pwrStateResidencyTicks::UNDEFINED 751950885500                       # Cumulative time (in ticks) in various power states (Tick)
system.cpu0.workload.drivers0.device.hsapp.walker.power_state.pwrStateResidencyTicks::UNDEFINED 751950885500                       # Cumulative time (in ticks) in various power states (Tick)
system.cpu0.workload.drivers0.device.power_state.pwrStateResidencyTicks::UNDEFINED 751950885500                       # Cumulative time (in ticks) in various power states (Tick)
system.cpu0.workload.drivers0.device.walker.power_state.pwrStateResidencyTicks::UNDEFINED 751950885500                       # Cumulative time (in ticks) in various power states (Tick)
system.cpu1.numCycles                      1293835960                       # Number of cpu cycles simulated (Cycle)
system.cpu1.numWorkItemsStarted                     0                       # Number of work items this cpu started (Count)
system.cpu1.numWorkItemsCompleted                   0                       # Number of work items this cpu completed (Count)
system.cpu1.clk_domain.clock                      500                       # Clock period in ticks (Tick)
system.cpu1.clk_domain.voltage_domain.voltage            1                       # Voltage in Volts (Volt)
system.cpu1.exec_context.thread_0.numInsts       345425                       # Number of instructions committed (Count)
system.cpu1.exec_context.thread_0.numOps       643312                       # Number of ops (including micro ops) committed (Count)
system.cpu1.exec_context.thread_0.numIntAluAccesses       619917                       # Number of integer alu accesses (Count)
system.cpu1.exec_context.thread_0.numFpAluAccesses        20246                       # Number of float alu accesses (Count)
system.cpu1.exec_context.thread_0.numVecAluAccesses            0                       # Number of vector alu accesses (Count)
system.cpu1.exec_context.thread_0.numCallsReturns        18108                       # Number of times a function call or return occured (Count)
system.cpu1.exec_context.thread_0.numCondCtrlInsts        89336                       # Number of instructions that are conditional controls (Count)
system.cpu1.exec_context.thread_0.numIntInsts       619917                       # Number of integer instructions (Count)
system.cpu1.exec_context.thread_0.numFpInsts        20246                       # Number of float instructions (Count)
system.cpu1.exec_context.thread_0.numVecInsts            0                       # Number of vector instructions (Count)
system.cpu1.exec_context.thread_0.numIntRegReads       675366                       # Number of times the integer registers were read (Count)
system.cpu1.exec_context.thread_0.numIntRegWrites       403033                       # Number of times the integer registers were written (Count)
system.cpu1.exec_context.thread_0.numFpRegReads        24366                       # Number of times the floating registers were read (Count)
system.cpu1.exec_context.thread_0.numFpRegWrites        16992                       # Number of times the floating registers were written (Count)
system.cpu1.exec_context.thread_0.numVecRegReads            0                       # Number of times the vector registers were read (Count)
system.cpu1.exec_context.thread_0.numVecRegWrites            0                       # Number of times the vector registers were written (Count)
system.cpu1.exec_context.thread_0.numVecPredRegReads            0                       # Number of times the predicate registers were read (Count)
system.cpu1.exec_context.thread_0.numVecPredRegWrites            0                       # Number of times the predicate registers were written (Count)
system.cpu1.exec_context.thread_0.numCCRegReads       546105                       # Number of times the CC registers were read (Count)
system.cpu1.exec_context.thread_0.numCCRegWrites       187204                       # Number of times the CC registers were written (Count)
system.cpu1.exec_context.thread_0.numMiscRegReads       373911                       # Number of times the Misc registers were read (Count)
system.cpu1.exec_context.thread_0.numMiscRegWrites           27                       # Number of times the Misc registers were written (Count)
system.cpu1.exec_context.thread_0.numMemRefs       158606                       # Number of memory refs (Count)
system.cpu1.exec_context.thread_0.numLoadInsts       143870                       # Number of load instructions (Count)
system.cpu1.exec_context.thread_0.numStoreInsts        14736                       # Number of store instructions (Count)
system.cpu1.exec_context.thread_0.numIdleCycles 1292683934.601230                       # Number of idle cycles (Cycle)
system.cpu1.exec_context.thread_0.numBusyCycles 1152025.398770                       # Number of busy cycles (Cycle)
system.cpu1.exec_context.thread_0.notIdleFraction     0.000890                       # Percentage of non-idle cycles (Ratio)
system.cpu1.exec_context.thread_0.idleFraction     0.999110                       # Percentage of idle cycles (Ratio)
system.cpu1.exec_context.thread_0.numBranches       110126                       # Number of branches fetched (Count)
system.cpu1.exec_context.thread_0.statExecutedInstType::No_OpClass        10527      1.64%      1.64% # Class of executed instruction. (Count)
system.cpu1.exec_context.thread_0.statExecutedInstType::IntAlu       460066     71.51%     73.15% # Class of executed instruction. (Count)
system.cpu1.exec_context.thread_0.statExecutedInstType::IntMult            3      0.00%     73.15% # Class of executed instruction. (Count)
system.cpu1.exec_context.thread_0.statExecutedInstType::IntDiv           75      0.01%     73.16% # Class of executed instruction. (Count)
system.cpu1.exec_context.thread_0.statExecutedInstType::FloatAdd         2864      0.45%     73.61% # Class of executed instruction. (Count)
system.cpu1.exec_context.thread_0.statExecutedInstType::FloatCmp            0      0.00%     73.61% # Class of executed instruction. (Count)
system.cpu1.exec_context.thread_0.statExecutedInstType::FloatCvt           48      0.01%     73.62% # Class of executed instruction. (Count)
system.cpu1.exec_context.thread_0.statExecutedInstType::FloatMult            0      0.00%     73.62% # Class of executed instruction. (Count)
system.cpu1.exec_context.thread_0.statExecutedInstType::FloatMultAcc            0      0.00%     73.62% # Class of executed instruction. (Count)
system.cpu1.exec_context.thread_0.statExecutedInstType::FloatDiv            0      0.00%     73.62% # Class of executed instruction. (Count)
system.cpu1.exec_context.thread_0.statExecutedInstType::FloatMisc            0      0.00%     73.62% # Class of executed instruction. (Count)
system.cpu1.exec_context.thread_0.statExecutedInstType::FloatSqrt            0      0.00%     73.62% # Class of executed instruction. (Count)
system.cpu1.exec_context.thread_0.statExecutedInstType::SimdAdd           20      0.00%     73.62% # Class of executed instruction. (Count)
system.cpu1.exec_context.thread_0.statExecutedInstType::SimdAddAcc            0      0.00%     73.62% # Class of executed instruction. (Count)
system.cpu1.exec_context.thread_0.statExecutedInstType::SimdAlu         2756      0.43%     74.05% # Class of executed instruction. (Count)
system.cpu1.exec_context.thread_0.statExecutedInstType::SimdCmp            0      0.00%     74.05% # Class of executed instruction. (Count)
system.cpu1.exec_context.thread_0.statExecutedInstType::SimdCvt           40      0.01%     74.05% # Class of executed instruction. (Count)
system.cpu1.exec_context.thread_0.statExecutedInstType::SimdMisc         1543      0.24%     74.29% # Class of executed instruction. (Count)
system.cpu1.exec_context.thread_0.statExecutedInstType::SimdMult            0      0.00%     74.29% # Class of executed instruction. (Count)
system.cpu1.exec_context.thread_0.statExecutedInstType::SimdMultAcc            0      0.00%     74.29% # Class of executed instruction. (Count)
system.cpu1.exec_context.thread_0.statExecutedInstType::SimdShift           21      0.00%     74.30% # Class of executed instruction. (Count)
system.cpu1.exec_context.thread_0.statExecutedInstType::SimdShiftAcc            0      0.00%     74.30% # Class of executed instruction. (Count)
system.cpu1.exec_context.thread_0.statExecutedInstType::SimdDiv            0      0.00%     74.30% # Class of executed instruction. (Count)
system.cpu1.exec_context.thread_0.statExecutedInstType::SimdSqrt            0      0.00%     74.30% # Class of executed instruction. (Count)
system.cpu1.exec_context.thread_0.statExecutedInstType::SimdFloatAdd         1350      0.21%     74.51% # Class of executed instruction. (Count)
system.cpu1.exec_context.thread_0.statExecutedInstType::SimdFloatAlu            0      0.00%     74.51% # Class of executed instruction. (Count)
system.cpu1.exec_context.thread_0.statExecutedInstType::SimdFloatCmp            0      0.00%     74.51% # Class of executed instruction. (Count)
system.cpu1.exec_context.thread_0.statExecutedInstType::SimdFloatCvt         4044      0.63%     75.13% # Class of executed instruction. (Count)
system.cpu1.exec_context.thread_0.statExecutedInstType::SimdFloatDiv            7      0.00%     75.14% # Class of executed instruction. (Count)
system.cpu1.exec_context.thread_0.statExecutedInstType::SimdFloatMisc            0      0.00%     75.14% # Class of executed instruction. (Count)
system.cpu1.exec_context.thread_0.statExecutedInstType::SimdFloatMult         1351      0.21%     75.35% # Class of executed instruction. (Count)
system.cpu1.exec_context.thread_0.statExecutedInstType::SimdFloatMultAcc            0      0.00%     75.35% # Class of executed instruction. (Count)
system.cpu1.exec_context.thread_0.statExecutedInstType::SimdFloatSqrt            0      0.00%     75.35% # Class of executed instruction. (Count)
system.cpu1.exec_context.thread_0.statExecutedInstType::SimdReduceAdd            0      0.00%     75.35% # Class of executed instruction. (Count)
system.cpu1.exec_context.thread_0.statExecutedInstType::SimdReduceAlu            0      0.00%     75.35% # Class of executed instruction. (Count)
system.cpu1.exec_context.thread_0.statExecutedInstType::SimdReduceCmp            0      0.00%     75.35% # Class of executed instruction. (Count)
system.cpu1.exec_context.thread_0.statExecutedInstType::SimdFloatReduceAdd            0      0.00%     75.35% # Class of executed instruction. (Count)
system.cpu1.exec_context.thread_0.statExecutedInstType::SimdFloatReduceCmp            0      0.00%     75.35% # Class of executed instruction. (Count)
system.cpu1.exec_context.thread_0.statExecutedInstType::SimdAes            0      0.00%     75.35% # Class of executed instruction. (Count)
system.cpu1.exec_context.thread_0.statExecutedInstType::SimdAesMix            0      0.00%     75.35% # Class of executed instruction. (Count)
system.cpu1.exec_context.thread_0.statExecutedInstType::SimdSha1Hash            0      0.00%     75.35% # Class of executed instruction. (Count)
system.cpu1.exec_context.thread_0.statExecutedInstType::SimdSha1Hash2            0      0.00%     75.35% # Class of executed instruction. (Count)
system.cpu1.exec_context.thread_0.statExecutedInstType::SimdSha256Hash            0      0.00%     75.35% # Class of executed instruction. (Count)
system.cpu1.exec_context.thread_0.statExecutedInstType::SimdSha256Hash2            0      0.00%     75.35% # Class of executed instruction. (Count)
system.cpu1.exec_context.thread_0.statExecutedInstType::SimdShaSigma2            0      0.00%     75.35% # Class of executed instruction. (Count)
system.cpu1.exec_context.thread_0.statExecutedInstType::SimdShaSigma3            0      0.00%     75.35% # Class of executed instruction. (Count)
system.cpu1.exec_context.thread_0.statExecutedInstType::SimdPredAlu            0      0.00%     75.35% # Class of executed instruction. (Count)
system.cpu1.exec_context.thread_0.statExecutedInstType::MemRead       138319     21.50%     96.85% # Class of executed instruction. (Count)
system.cpu1.exec_context.thread_0.statExecutedInstType::MemWrite        14239      2.21%     99.06% # Class of executed instruction. (Count)
system.cpu1.exec_context.thread_0.statExecutedInstType::FloatMemRead         5551      0.86%     99.92% # Class of executed instruction. (Count)
system.cpu1.exec_context.thread_0.statExecutedInstType::FloatMemWrite          497      0.08%    100.00% # Class of executed instruction. (Count)
system.cpu1.exec_context.thread_0.statExecutedInstType::IprAccess            0      0.00%    100.00% # Class of executed instruction. (Count)
system.cpu1.exec_context.thread_0.statExecutedInstType::InstPrefetch            0      0.00%    100.00% # Class of executed instruction. (Count)
system.cpu1.exec_context.thread_0.statExecutedInstType::total       643321                       # Class of executed instruction. (Count)
system.cpu1.interrupts.clk_domain.clock          8000                       # Clock period in ticks (Tick)
system.cpu1.mmu.dtb.rdAccesses                 143870                       # TLB accesses on read requests (Count)
system.cpu1.mmu.dtb.wrAccesses                  14736                       # TLB accesses on write requests (Count)
system.cpu1.mmu.dtb.rdMisses                      155                       # TLB misses on read requests (Count)
system.cpu1.mmu.dtb.wrMisses                        3                       # TLB misses on write requests (Count)
system.cpu1.mmu.dtb.walker.power_state.pwrStateResidencyTicks::UNDEFINED 751950885500                       # Cumulative time (in ticks) in various power states (Tick)
system.cpu1.mmu.itb.rdAccesses                      0                       # TLB accesses on read requests (Count)
system.cpu1.mmu.itb.wrAccesses                 456294                       # TLB accesses on write requests (Count)
system.cpu1.mmu.itb.rdMisses                        0                       # TLB misses on read requests (Count)
system.cpu1.mmu.itb.wrMisses                      126                       # TLB misses on write requests (Count)
system.cpu1.mmu.itb.walker.power_state.pwrStateResidencyTicks::UNDEFINED 751950885500                       # Cumulative time (in ticks) in various power states (Tick)
system.cpu1.power_state.numTransitions              3                       # Number of power state transitions (Count)
system.cpu1.power_state.ticksClkGated::samples            2                       # Distribution of time spent in the clock gated state (Tick)
system.cpu1.power_state.ticksClkGated::mean  53650553000                       # Distribution of time spent in the clock gated state (Tick)
system.cpu1.power_state.ticksClkGated::stdev 72665619772.135101                       # Distribution of time spent in the clock gated state (Tick)
system.cpu1.power_state.ticksClkGated::1000-5e+10            1     50.00%     50.00% # Distribution of time spent in the clock gated state (Tick)
system.cpu1.power_state.ticksClkGated::1e+11-1.5e+11            1     50.00%    100.00% # Distribution of time spent in the clock gated state (Tick)
system.cpu1.power_state.ticksClkGated::min_value   2268200500                       # Distribution of time spent in the clock gated state (Tick)
system.cpu1.power_state.ticksClkGated::max_value 105032905500                       # Distribution of time spent in the clock gated state (Tick)
system.cpu1.power_state.ticksClkGated::total            2                       # Distribution of time spent in the clock gated state (Tick)
system.cpu1.power_state.pwrStateResidencyTicks::ON 644649779500                       # Cumulative time (in ticks) in various power states (Tick)
system.cpu1.power_state.pwrStateResidencyTicks::CLK_GATED 107301106000                       # Cumulative time (in ticks) in various power states (Tick)
system.cpu1.thread_0.numInsts                       0                       # Number of Instructions committed (Count)
system.cpu1.thread_0.numOps                         0                       # Number of Ops committed (Count)
system.cpu1.thread_0.numMemRefs                     0                       # Number of Memory References (Count)
system.cpu2.numCycles                      1494409414                       # Number of cpu cycles simulated (Cycle)
system.cpu2.numWorkItemsStarted                     0                       # Number of work items this cpu started (Count)
system.cpu2.numWorkItemsCompleted                   0                       # Number of work items this cpu completed (Count)
system.cpu2.clk_domain.clock                      500                       # Clock period in ticks (Tick)
system.cpu2.clk_domain.voltage_domain.voltage            1                       # Voltage in Volts (Volt)
system.cpu2.exec_context.thread_0.numInsts      3836886                       # Number of instructions committed (Count)
system.cpu2.exec_context.thread_0.numOps      7843679                       # Number of ops (including micro ops) committed (Count)
system.cpu2.exec_context.thread_0.numIntAluAccesses      7696993                       # Number of integer alu accesses (Count)
system.cpu2.exec_context.thread_0.numFpAluAccesses      2223688                       # Number of float alu accesses (Count)
system.cpu2.exec_context.thread_0.numVecAluAccesses            0                       # Number of vector alu accesses (Count)
system.cpu2.exec_context.thread_0.numCallsReturns        71130                       # Number of times a function call or return occured (Count)
system.cpu2.exec_context.thread_0.numCondCtrlInsts       402133                       # Number of instructions that are conditional controls (Count)
system.cpu2.exec_context.thread_0.numIntInsts      7696993                       # Number of integer instructions (Count)
system.cpu2.exec_context.thread_0.numFpInsts      2223688                       # Number of float instructions (Count)
system.cpu2.exec_context.thread_0.numVecInsts            0                       # Number of vector instructions (Count)
system.cpu2.exec_context.thread_0.numIntRegReads      8429328                       # Number of times the integer registers were read (Count)
system.cpu2.exec_context.thread_0.numIntRegWrites      3557678                       # Number of times the integer registers were written (Count)
system.cpu2.exec_context.thread_0.numFpRegReads      1185808                       # Number of times the floating registers were read (Count)
system.cpu2.exec_context.thread_0.numFpRegWrites      1130832                       # Number of times the floating registers were written (Count)
system.cpu2.exec_context.thread_0.numVecRegReads            0                       # Number of times the vector registers were read (Count)
system.cpu2.exec_context.thread_0.numVecRegWrites            0                       # Number of times the vector registers were written (Count)
system.cpu2.exec_context.thread_0.numVecPredRegReads            0                       # Number of times the predicate registers were read (Count)
system.cpu2.exec_context.thread_0.numVecPredRegWrites            0                       # Number of times the predicate registers were written (Count)
system.cpu2.exec_context.thread_0.numCCRegReads      2544836                       # Number of times the CC registers were read (Count)
system.cpu2.exec_context.thread_0.numCCRegWrites      2052257                       # Number of times the CC registers were written (Count)
system.cpu2.exec_context.thread_0.numMiscRegReads      4769873                       # Number of times the Misc registers were read (Count)
system.cpu2.exec_context.thread_0.numMiscRegWrites          329                       # Number of times the Misc registers were written (Count)
system.cpu2.exec_context.thread_0.numMemRefs      3706404                       # Number of memory refs (Count)
system.cpu2.exec_context.thread_0.numLoadInsts      1803383                       # Number of load instructions (Count)
system.cpu2.exec_context.thread_0.numStoreInsts      1903021                       # Number of store instructions (Count)
system.cpu2.exec_context.thread_0.numIdleCycles 1369074040.257146                       # Number of idle cycles (Cycle)
system.cpu2.exec_context.thread_0.numBusyCycles 125335373.742854                       # Number of busy cycles (Cycle)
system.cpu2.exec_context.thread_0.notIdleFraction     0.083870                       # Percentage of non-idle cycles (Ratio)
system.cpu2.exec_context.thread_0.idleFraction     0.916130                       # Percentage of idle cycles (Ratio)
system.cpu2.exec_context.thread_0.numBranches       520573                       # Number of branches fetched (Count)
system.cpu2.exec_context.thread_0.statExecutedInstType::No_OpClass       574234      6.86%      6.86% # Class of executed instruction. (Count)
system.cpu2.exec_context.thread_0.statExecutedInstType::IntAlu      4021896     48.05%     54.91% # Class of executed instruction. (Count)
system.cpu2.exec_context.thread_0.statExecutedInstType::IntMult         2594      0.03%     54.94% # Class of executed instruction. (Count)
system.cpu2.exec_context.thread_0.statExecutedInstType::IntDiv         6685      0.08%     55.02% # Class of executed instruction. (Count)
system.cpu2.exec_context.thread_0.statExecutedInstType::FloatAdd         9912      0.12%     55.14% # Class of executed instruction. (Count)
system.cpu2.exec_context.thread_0.statExecutedInstType::FloatCmp            3      0.00%     55.14% # Class of executed instruction. (Count)
system.cpu2.exec_context.thread_0.statExecutedInstType::FloatCvt          530      0.01%     55.14% # Class of executed instruction. (Count)
system.cpu2.exec_context.thread_0.statExecutedInstType::FloatMult            1      0.00%     55.14% # Class of executed instruction. (Count)
system.cpu2.exec_context.thread_0.statExecutedInstType::FloatMultAcc            0      0.00%     55.14% # Class of executed instruction. (Count)
system.cpu2.exec_context.thread_0.statExecutedInstType::FloatDiv            1      0.00%     55.14% # Class of executed instruction. (Count)
system.cpu2.exec_context.thread_0.statExecutedInstType::FloatMisc            0      0.00%     55.14% # Class of executed instruction. (Count)
system.cpu2.exec_context.thread_0.statExecutedInstType::FloatSqrt            0      0.00%     55.14% # Class of executed instruction. (Count)
system.cpu2.exec_context.thread_0.statExecutedInstType::SimdAdd          408      0.00%     55.15% # Class of executed instruction. (Count)
system.cpu2.exec_context.thread_0.statExecutedInstType::SimdAddAcc            0      0.00%     55.15% # Class of executed instruction. (Count)
system.cpu2.exec_context.thread_0.statExecutedInstType::SimdAlu        17512      0.21%     55.36% # Class of executed instruction. (Count)
system.cpu2.exec_context.thread_0.statExecutedInstType::SimdCmp           12      0.00%     55.36% # Class of executed instruction. (Count)
system.cpu2.exec_context.thread_0.statExecutedInstType::SimdCvt          558      0.01%     55.37% # Class of executed instruction. (Count)
system.cpu2.exec_context.thread_0.statExecutedInstType::SimdMisc         6276      0.07%     55.44% # Class of executed instruction. (Count)
system.cpu2.exec_context.thread_0.statExecutedInstType::SimdMult            0      0.00%     55.44% # Class of executed instruction. (Count)
system.cpu2.exec_context.thread_0.statExecutedInstType::SimdMultAcc            0      0.00%     55.44% # Class of executed instruction. (Count)
system.cpu2.exec_context.thread_0.statExecutedInstType::SimdShift          283      0.00%     55.44% # Class of executed instruction. (Count)
system.cpu2.exec_context.thread_0.statExecutedInstType::SimdShiftAcc            0      0.00%     55.44% # Class of executed instruction. (Count)
system.cpu2.exec_context.thread_0.statExecutedInstType::SimdDiv            0      0.00%     55.44% # Class of executed instruction. (Count)
system.cpu2.exec_context.thread_0.statExecutedInstType::SimdSqrt            0      0.00%     55.44% # Class of executed instruction. (Count)
system.cpu2.exec_context.thread_0.statExecutedInstType::SimdFloatAdd         4724      0.06%     55.50% # Class of executed instruction. (Count)
system.cpu2.exec_context.thread_0.statExecutedInstType::SimdFloatAlu            0      0.00%     55.50% # Class of executed instruction. (Count)
system.cpu2.exec_context.thread_0.statExecutedInstType::SimdFloatCmp            0      0.00%     55.50% # Class of executed instruction. (Count)
system.cpu2.exec_context.thread_0.statExecutedInstType::SimdFloatCvt        13680      0.16%     55.66% # Class of executed instruction. (Count)
system.cpu2.exec_context.thread_0.statExecutedInstType::SimdFloatDiv            4      0.00%     55.66% # Class of executed instruction. (Count)
system.cpu2.exec_context.thread_0.statExecutedInstType::SimdFloatMisc            0      0.00%     55.66% # Class of executed instruction. (Count)
system.cpu2.exec_context.thread_0.statExecutedInstType::SimdFloatMult         4726      0.06%     55.72% # Class of executed instruction. (Count)
system.cpu2.exec_context.thread_0.statExecutedInstType::SimdFloatMultAcc            0      0.00%     55.72% # Class of executed instruction. (Count)
system.cpu2.exec_context.thread_0.statExecutedInstType::SimdFloatSqrt            0      0.00%     55.72% # Class of executed instruction. (Count)
system.cpu2.exec_context.thread_0.statExecutedInstType::SimdReduceAdd            0      0.00%     55.72% # Class of executed instruction. (Count)
system.cpu2.exec_context.thread_0.statExecutedInstType::SimdReduceAlu            0      0.00%     55.72% # Class of executed instruction. (Count)
system.cpu2.exec_context.thread_0.statExecutedInstType::SimdReduceCmp            0      0.00%     55.72% # Class of executed instruction. (Count)
system.cpu2.exec_context.thread_0.statExecutedInstType::SimdFloatReduceAdd            0      0.00%     55.72% # Class of executed instruction. (Count)
system.cpu2.exec_context.thread_0.statExecutedInstType::SimdFloatReduceCmp            0      0.00%     55.72% # Class of executed instruction. (Count)
system.cpu2.exec_context.thread_0.statExecutedInstType::SimdAes            0      0.00%     55.72% # Class of executed instruction. (Count)
system.cpu2.exec_context.thread_0.statExecutedInstType::SimdAesMix            0      0.00%     55.72% # Class of executed instruction. (Count)
system.cpu2.exec_context.thread_0.statExecutedInstType::SimdSha1Hash            0      0.00%     55.72% # Class of executed instruction. (Count)
system.cpu2.exec_context.thread_0.statExecutedInstType::SimdSha1Hash2            0      0.00%     55.72% # Class of executed instruction. (Count)
system.cpu2.exec_context.thread_0.statExecutedInstType::SimdSha256Hash            0      0.00%     55.72% # Class of executed instruction. (Count)
system.cpu2.exec_context.thread_0.statExecutedInstType::SimdSha256Hash2            0      0.00%     55.72% # Class of executed instruction. (Count)
system.cpu2.exec_context.thread_0.statExecutedInstType::SimdShaSigma2            0      0.00%     55.72% # Class of executed instruction. (Count)
system.cpu2.exec_context.thread_0.statExecutedInstType::SimdShaSigma3            0      0.00%     55.72% # Class of executed instruction. (Count)
system.cpu2.exec_context.thread_0.statExecutedInstType::SimdPredAlu            0      0.00%     55.72% # Class of executed instruction. (Count)
system.cpu2.exec_context.thread_0.statExecutedInstType::MemRead       722166      8.63%     64.35% # Class of executed instruction. (Count)
system.cpu2.exec_context.thread_0.statExecutedInstType::MemWrite       819955      9.80%     74.14% # Class of executed instruction. (Count)
system.cpu2.exec_context.thread_0.statExecutedInstType::FloatMemRead      1081217     12.92%     87.06% # Class of executed instruction. (Count)
system.cpu2.exec_context.thread_0.statExecutedInstType::FloatMemWrite      1083066     12.94%    100.00% # Class of executed instruction. (Count)
system.cpu2.exec_context.thread_0.statExecutedInstType::IprAccess            0      0.00%    100.00% # Class of executed instruction. (Count)
system.cpu2.exec_context.thread_0.statExecutedInstType::InstPrefetch            0      0.00%    100.00% # Class of executed instruction. (Count)
system.cpu2.exec_context.thread_0.statExecutedInstType::total      8370443                       # Class of executed instruction. (Count)
system.cpu2.interrupts.clk_domain.clock          8000                       # Clock period in ticks (Tick)
system.cpu2.mmu.dtb.rdAccesses                1803409                       # TLB accesses on read requests (Count)
system.cpu2.mmu.dtb.wrAccesses                1903284                       # TLB accesses on write requests (Count)
system.cpu2.mmu.dtb.rdMisses                     3230                       # TLB misses on read requests (Count)
system.cpu2.mmu.dtb.wrMisses                     3375                       # TLB misses on write requests (Count)
system.cpu2.mmu.dtb.walker.power_state.pwrStateResidencyTicks::UNDEFINED 751950885500                       # Cumulative time (in ticks) in various power states (Tick)
system.cpu2.mmu.itb.rdAccesses                      0                       # TLB accesses on read requests (Count)
system.cpu2.mmu.itb.wrAccesses                6148882                       # TLB accesses on write requests (Count)
system.cpu2.mmu.itb.rdMisses                        0                       # TLB misses on read requests (Count)
system.cpu2.mmu.itb.wrMisses                      440                       # TLB misses on write requests (Count)
system.cpu2.mmu.itb.walker.power_state.pwrStateResidencyTicks::UNDEFINED 751950885500                       # Cumulative time (in ticks) in various power states (Tick)
system.cpu2.power_state.numTransitions             11                       # Number of power state transitions (Count)
system.cpu2.power_state.ticksClkGated::samples            6                       # Distribution of time spent in the clock gated state (Tick)
system.cpu2.power_state.ticksClkGated::mean 7240086666.666667                       # Distribution of time spent in the clock gated state (Tick)
system.cpu2.power_state.ticksClkGated::stdev 14057915633.841009                       # Distribution of time spent in the clock gated state (Tick)
system.cpu2.power_state.ticksClkGated::1000-5e+10            6    100.00%    100.00% # Distribution of time spent in the clock gated state (Tick)
system.cpu2.power_state.ticksClkGated::min_value     14127000                       # Distribution of time spent in the clock gated state (Tick)
system.cpu2.power_state.ticksClkGated::max_value  35711985500                       # Distribution of time spent in the clock gated state (Tick)
system.cpu2.power_state.ticksClkGated::total            6                       # Distribution of time spent in the clock gated state (Tick)
system.cpu2.power_state.pwrStateResidencyTicks::ON 708510365500                       # Cumulative time (in ticks) in various power states (Tick)
system.cpu2.power_state.pwrStateResidencyTicks::CLK_GATED  43440520000                       # Cumulative time (in ticks) in various power states (Tick)
system.cpu2.thread_0.numInsts                       0                       # Number of Instructions committed (Count)
system.cpu2.thread_0.numOps                         0                       # Number of Ops committed (Count)
system.cpu2.thread_0.numMemRefs                     0                       # Number of Memory References (Count)
system.cpu3.allLatencyDist::bucket_size         10000                       # delay distribution for all (Unspecified)
system.cpu3.allLatencyDist::min_bucket              0                       # delay distribution for all (Unspecified)
system.cpu3.allLatencyDist::max_bucket        1600000                       # delay distribution for all (Unspecified)
system.cpu3.allLatencyDist::samples           1526606                       # delay distribution for all (Unspecified)
system.cpu3.allLatencyDist::mean         3152001.644825                       # delay distribution for all (Unspecified)
system.cpu3.allLatencyDist::stdev        1768118.640874                       # delay distribution for all (Unspecified)
system.cpu3.allLatencyDist::underflows              0      0.00%      0.00% # delay distribution for all (Unspecified)
system.cpu3.allLatencyDist               |           0      0.00%      0.00% |           0      0.00%      0.00% |           0      0.00%      0.00% |           0      0.00%      0.00% |           0      0.00%      0.00% |           0      0.00%      0.00% |           0      0.00%      0.00% |           0      0.00%      0.00% |           0      0.00%      0.00% |           0      0.00%      0.00% |         134      0.01%      0.01% |          41      0.00%      0.01% |          50      0.00%      0.01% |          75      0.00%      0.02% |          99      0.01%      0.03% |          94      0.01%      0.03% |         129      0.01%      0.04% |         255      0.02%      0.06% |         156      0.01%      0.07% |         217      0.01%      0.08% |         202      0.01%      0.10% |         194      0.01%      0.11% |         185      0.01%      0.12% |         177      0.01%      0.13% |        1079      0.07%      0.20% |        3251      0.21%      0.42% |        1839      0.12%      0.54% |        1497      0.10%      0.63% |        1421      0.09%      0.73% |        1364      0.09%      0.82% |        1391      0.09%      0.91% |        1246      0.08%      0.99% |        9159      0.60%      1.59% |        4917      0.32%      1.91% |        3619      0.24%      2.15% |        2787      0.18%      2.33% |        2436      0.16%      2.49% |        2049      0.13%      2.62% |        1919      0.13%      2.75% |        2499      0.16%      2.91% |        2153      0.14%      3.05% |        2023      0.13%      3.19% |        1811      0.12%      3.31% |        1804      0.12%      3.42% |        1538      0.10%      3.52% |        1615      0.11%      3.63% |        1589      0.10%      3.73% |        1593      0.10%      3.84% |        1603      0.11%      3.94% |        1449      0.09%      4.04% |        1376      0.09%      4.13% |        1337      0.09%      4.22% |        1372      0.09%      4.31% |        1288      0.08%      4.39% |        1355      0.09%      4.48% |        1243      0.08%      4.56% |        1385      0.09%      4.65% |        1253      0.08%      4.73% |        1228      0.08%      4.81% |        1343      0.09%      4.90% |        1274      0.08%      4.99% |        1406      0.09%      5.08% |        1321      0.09%      5.16% |        1324      0.09%      5.25% |        1302      0.09%      5.34% |        1277      0.08%      5.42% |        1237      0.08%      5.50% |        1275      0.08%      5.58% |        1351      0.09%      5.67% |        1260      0.08%      5.76% |        1276      0.08%      5.84% |        1313      0.09%      5.93% |        1266      0.08%      6.01% |        1249      0.08%      6.09% |        1330      0.09%      6.18% |        1366      0.09%      6.27% |        1404      0.09%      6.36% |        1363      0.09%      6.45% |        1401      0.09%      6.54% |        1414      0.09%      6.63% |        1424      0.09%      6.73% |        1513      0.10%      6.82% |        1428      0.09%      6.92% |        1496      0.10%      7.02% |        1506      0.10%      7.11% |        1549      0.10%      7.22% |        1483      0.10%      7.31% |        1532      0.10%      7.41% |        1515      0.10%      7.51% |        1553      0.10%      7.61% |        1636      0.11%      7.72% |        1670      0.11%      7.83% |        1659      0.11%      7.94% |        1728      0.11%      8.05% |        1697      0.11%      8.16% |        1780      0.12%      8.28% |        1678      0.11%      8.39% |        1763      0.12%      8.51% |        1658      0.11%      8.61% |        1711      0.11%      8.73% |        1780      0.12%      8.84% |        1800      0.12%      8.96% |        1832      0.12%      9.08% |        1830      0.12%      9.20% |        1897      0.12%      9.33% |        1852      0.12%      9.45% |        1845      0.12%      9.57% |        1879      0.12%      9.69% |        1873      0.12%      9.81% |        1958      0.13%      9.94% |        1955      0.13%     10.07% |        1944      0.13%     10.20% |        2000      0.13%     10.33% |        1964      0.13%     10.46% |        2046      0.13%     10.59% |        2063      0.14%     10.73% |        2044      0.13%     10.86% |        2035      0.13%     10.99% |        2138      0.14%     11.13% |        2123      0.14%     11.27% |        2064      0.14%     11.41% |        2095      0.14%     11.54% |        2152      0.14%     11.69% |        2164      0.14%     11.83% |        2228      0.15%     11.97% |        2173      0.14%     12.12% |        2244      0.15%     12.26% |        2240      0.15%     12.41% |        2293      0.15%     12.56% |        2309      0.15%     12.71% |        2308      0.15%     12.86% |        2474      0.16%     13.02% |        2373      0.16%     13.18% |        2295      0.15%     13.33% |        2522      0.17%     13.50% |        2359      0.15%     13.65% |        2460      0.16%     13.81% |        2479      0.16%     13.97% |        2453      0.16%     14.13% |        2514      0.16%     14.30% |        2554      0.17%     14.47% |        2611      0.17%     14.64% |        2443      0.16%     14.80% |        2525      0.17%     14.96% |        2569      0.17%     15.13% |        2590      0.17%     15.30% |        2537      0.17%     15.47% |        2671      0.17%     15.64% |        2729      0.18%     15.82% |        2617      0.17%     15.99% |        2684      0.18%     16.17% |        2646      0.17%     16.34% |        2764      0.18%     16.52% |        2644      0.17%     16.70% |        2722      0.18%     16.87% |        2867      0.19%     17.06% |        2812      0.18%     17.25% |        2904      0.19%     17.44% |        2855      0.19%     17.62% |        2936      0.19%     17.81% |         248      0.02%     17.83% # delay distribution for all (Unspecified)
system.cpu3.allLatencyDist::overflows         1254394     82.17%    100.00% # delay distribution for all (Unspecified)
system.cpu3.allLatencyDist::min_value          105000                       # delay distribution for all (Unspecified)
system.cpu3.allLatencyDist::max_value        14435000                       # delay distribution for all (Unspecified)
system.cpu3.allLatencyDist::total             1526606                       # delay distribution for all (Unspecified)
system.cpu3.loadLatencyDist::bucket_size        10000                       # delay distribution for loads (Unspecified)
system.cpu3.loadLatencyDist::min_bucket             0                       # delay distribution for loads (Unspecified)
system.cpu3.loadLatencyDist::max_bucket       1600000                       # delay distribution for loads (Unspecified)
system.cpu3.loadLatencyDist::samples          1081344                       # delay distribution for loads (Unspecified)
system.cpu3.loadLatencyDist::mean        3293761.253588                       # delay distribution for loads (Unspecified)
system.cpu3.loadLatencyDist::stdev       1729370.725014                       # delay distribution for loads (Unspecified)
system.cpu3.loadLatencyDist::underflows             0      0.00%      0.00% # delay distribution for loads (Unspecified)
system.cpu3.loadLatencyDist              |           0      0.00%      0.00% |           0      0.00%      0.00% |           0      0.00%      0.00% |           0      0.00%      0.00% |           0      0.00%      0.00% |           0      0.00%      0.00% |           0      0.00%      0.00% |           0      0.00%      0.00% |           0      0.00%      0.00% |           0      0.00%      0.00% |         134      0.01%      0.01% |          41      0.00%      0.02% |          50      0.00%      0.02% |          75      0.01%      0.03% |          99      0.01%      0.04% |          94      0.01%      0.05% |         129      0.01%      0.06% |         255      0.02%      0.08% |         156      0.01%      0.10% |         217      0.02%      0.12% |         202      0.02%      0.13% |         194      0.02%      0.15% |         185      0.02%      0.17% |         177      0.02%      0.19% |         207      0.02%      0.20% |         218      0.02%      0.22% |         246      0.02%      0.25% |         396      0.04%      0.28% |         609      0.06%      0.34% |         596      0.06%      0.40% |         783      0.07%      0.47% |         708      0.07%      0.53% |         832      0.08%      0.61% |         650      0.06%      0.67% |         711      0.07%      0.74% |         548      0.05%      0.79% |         545      0.05%      0.84% |         514      0.05%      0.89% |         560      0.05%      0.94% |         524      0.05%      0.99% |         505      0.05%      1.03% |         527      0.05%      1.08% |         498      0.05%      1.13% |         522      0.05%      1.18% |         424      0.04%      1.21% |         453      0.04%      1.26% |         512      0.05%      1.30% |         506      0.05%      1.35% |         514      0.05%      1.40% |         494      0.05%      1.44% |         485      0.04%      1.49% |         497      0.05%      1.53% |         542      0.05%      1.58% |         537      0.05%      1.63% |         559      0.05%      1.69% |         527      0.05%      1.73% |         621      0.06%      1.79% |         582      0.05%      1.85% |         566      0.05%      1.90% |         687      0.06%      1.96% |         643      0.06%      2.02% |         702      0.06%      2.09% |         647      0.06%      2.15% |         663      0.06%      2.21% |         621      0.06%      2.26% |         646      0.06%      2.32% |         689      0.06%      2.39% |         725      0.07%      2.46% |         757      0.07%      2.53% |         704      0.07%      2.59% |         731      0.07%      2.66% |         726      0.07%      2.73% |         743      0.07%      2.79% |         712      0.07%      2.86% |         784      0.07%      2.93% |         824      0.08%      3.01% |         864      0.08%      3.09% |         826      0.08%      3.16% |         842      0.08%      3.24% |         846      0.08%      3.32% |         892      0.08%      3.40% |         968      0.09%      3.49% |         859      0.08%      3.57% |         950      0.09%      3.66% |        1003      0.09%      3.75% |         997      0.09%      3.84% |         961      0.09%      3.93% |        1034      0.10%      4.03% |        1036      0.10%      4.13% |        1027      0.09%      4.22% |        1097      0.10%      4.32% |        1165      0.11%      4.43% |        1116      0.10%      4.53% |        1144      0.11%      4.64% |        1146      0.11%      4.74% |        1185      0.11%      4.85% |        1133      0.10%      4.96% |        1182      0.11%      5.07% |        1119      0.10%      5.17% |        1159      0.11%      5.28% |        1210      0.11%      5.39% |        1243      0.11%      5.51% |        1270      0.12%      5.62% |        1268      0.12%      5.74% |        1306      0.12%      5.86% |        1263      0.12%      5.98% |        1227      0.11%      6.09% |        1236      0.11%      6.21% |        1263      0.12%      6.32% |        1345      0.12%      6.45% |        1340      0.12%      6.57% |        1323      0.12%      6.69% |        1355      0.13%      6.82% |        1328      0.12%      6.94% |        1364      0.13%      7.07% |        1428      0.13%      7.20% |        1390      0.13%      7.33% |        1387      0.13%      7.46% |        1475      0.14%      7.59% |        1426      0.13%      7.72% |        1423      0.13%      7.86% |        1422      0.13%      7.99% |        1429      0.13%      8.12% |        1438      0.13%      8.25% |        1461      0.14%      8.39% |        1425      0.13%      8.52% |        1516      0.14%      8.66% |        1511      0.14%      8.80% |        1523      0.14%      8.94% |        1539      0.14%      9.08% |        1527      0.14%      9.22% |        1608      0.15%      9.37% |        1574      0.15%      9.52% |        1499      0.14%      9.66% |        1641      0.15%      9.81% |        1550      0.14%      9.95% |        1608      0.15%     10.10% |        1678      0.16%     10.26% |        1637      0.15%     10.41% |        1651      0.15%     10.56% |        1722      0.16%     10.72% |        1738      0.16%     10.88% |        1582      0.15%     11.03% |        1683      0.16%     11.18% |        1687      0.16%     11.34% |        1699      0.16%     11.49% |        1691      0.16%     11.65% |        1780      0.16%     11.82% |        1786      0.17%     11.98% |        1740      0.16%     12.14% |        1718      0.16%     12.30% |        1704      0.16%     12.46% |        1827      0.17%     12.63% |        1758      0.16%     12.79% |        1795      0.17%     12.96% |        1880      0.17%     13.13% |        1865      0.17%     13.30% |        1957      0.18%     13.48% |        1905      0.18%     13.66% |        2037      0.19%     13.85% |         163      0.02%     13.86% # delay distribution for loads (Unspecified)
system.cpu3.loadLatencyDist::overflows         931439     86.14%    100.00% # delay distribution for loads (Unspecified)
system.cpu3.loadLatencyDist::min_value         105000                       # delay distribution for loads (Unspecified)
system.cpu3.loadLatencyDist::max_value       14435000                       # delay distribution for loads (Unspecified)
system.cpu3.loadLatencyDist::total            1081344                       # delay distribution for loads (Unspecified)
system.cpu3.storeLatencyDist::bucket_size        10000                       # delay distribution for stores (Unspecified)
system.cpu3.storeLatencyDist::min_bucket            0                       # delay distribution for stores (Unspecified)
system.cpu3.storeLatencyDist::max_bucket      1600000                       # delay distribution for stores (Unspecified)
system.cpu3.storeLatencyDist::samples          445262                       # delay distribution for stores (Unspecified)
system.cpu3.storeLatencyDist::mean       2807730.401427                       # delay distribution for stores (Unspecified)
system.cpu3.storeLatencyDist::stdev      1813296.222719                       # delay distribution for stores (Unspecified)
system.cpu3.storeLatencyDist::underflows            0      0.00%      0.00% # delay distribution for stores (Unspecified)
system.cpu3.storeLatencyDist             |           0      0.00%      0.00% |           0      0.00%      0.00% |           0      0.00%      0.00% |           0      0.00%      0.00% |           0      0.00%      0.00% |           0      0.00%      0.00% |           0      0.00%      0.00% |           0      0.00%      0.00% |           0      0.00%      0.00% |           0      0.00%      0.00% |           0      0.00%      0.00% |           0      0.00%      0.00% |           0      0.00%      0.00% |           0      0.00%      0.00% |           0      0.00%      0.00% |           0      0.00%      0.00% |           0      0.00%      0.00% |           0      0.00%      0.00% |           0      0.00%      0.00% |           0      0.00%      0.00% |           0      0.00%      0.00% |           0      0.00%      0.00% |           0      0.00%      0.00% |           0      0.00%      0.00% |         872      0.20%      0.20% |        3033      0.68%      0.88% |        1593      0.36%      1.23% |        1101      0.25%      1.48% |         812      0.18%      1.66% |         768      0.17%      1.84% |         608      0.14%      1.97% |         538      0.12%      2.09% |        8327      1.87%      3.96% |        4267      0.96%      4.92% |        2908      0.65%      5.58% |        2239      0.50%      6.08% |        1891      0.42%      6.50% |        1535      0.34%      6.85% |        1359      0.31%      7.15% |        1975      0.44%      7.60% |        1648      0.37%      7.97% |        1496      0.34%      8.30% |        1313      0.29%      8.60% |        1282      0.29%      8.89% |        1114      0.25%      9.14% |        1162      0.26%      9.40% |        1077      0.24%      9.64% |        1087      0.24%      9.88% |        1089      0.24%     10.13% |         955      0.21%     10.34% |         891      0.20%     10.54% |         840      0.19%     10.73% |         830      0.19%     10.92% |         751      0.17%     11.09% |         796      0.18%     11.26% |         716      0.16%     11.43% |         764      0.17%     11.60% |         671      0.15%     11.75% |         662      0.15%     11.90% |         656      0.15%     12.04% |         631      0.14%     12.19% |         704      0.16%     12.34% |         674      0.15%     12.49% |         661      0.15%     12.64% |         681      0.15%     12.80% |         631      0.14%     12.94% |         548      0.12%     13.06% |         550      0.12%     13.18% |         594      0.13%     13.32% |         556      0.12%     13.44% |         545      0.12%     13.57% |         587      0.13%     13.70% |         523      0.12%     13.81% |         537      0.12%     13.94% |         546      0.12%     14.06% |         542      0.12%     14.18% |         540      0.12%     14.30% |         537      0.12%     14.42% |         559      0.13%     14.55% |         568      0.13%     14.67% |         532      0.12%     14.79% |         545      0.12%     14.92% |         569      0.13%     15.04% |         546      0.12%     15.17% |         503      0.11%     15.28% |         552      0.12%     15.40% |         522      0.12%     15.52% |         498      0.11%     15.63% |         479      0.11%     15.74% |         526      0.12%     15.86% |         539      0.12%     15.98% |         505      0.11%     16.09% |         543      0.12%     16.21% |         584      0.13%     16.35% |         551      0.12%     16.47% |         595      0.13%     16.60% |         545      0.12%     16.73% |         581      0.13%     16.86% |         539      0.12%     16.98% |         552      0.12%     17.10% |         570      0.13%     17.23% |         557      0.13%     17.35% |         562      0.13%     17.48% |         562      0.13%     17.61% |         591      0.13%     17.74% |         589      0.13%     17.87% |         618      0.14%     18.01% |         643      0.14%     18.16% |         610      0.14%     18.29% |         613      0.14%     18.43% |         615      0.14%     18.57% |         621      0.14%     18.71% |         645      0.14%     18.85% |         636      0.14%     19.00% |         682      0.15%     19.15% |         635      0.14%     19.29% |         654      0.15%     19.44% |         648      0.15%     19.58% |         663      0.15%     19.73% |         697      0.16%     19.89% |         641      0.14%     20.03% |         673      0.15%     20.18% |         723      0.16%     20.35% |         726      0.16%     20.51% |         767      0.17%     20.68% |         748      0.17%     20.85% |         728      0.16%     21.01% |         729      0.16%     21.18% |         770      0.17%     21.35% |         770      0.17%     21.52% |         781      0.18%     21.70% |         866      0.19%     21.89% |         799      0.18%     22.07% |         796      0.18%     22.25% |         881      0.20%     22.45% |         809      0.18%     22.63% |         852      0.19%     22.82% |         801      0.18%     23.00% |         816      0.18%     23.18% |         863      0.19%     23.38% |         832      0.19%     23.57% |         873      0.20%     23.76% |         861      0.19%     23.95% |         842      0.19%     24.14% |         882      0.20%     24.34% |         891      0.20%     24.54% |         846      0.19%     24.73% |         891      0.20%     24.93% |         943      0.21%     25.14% |         877      0.20%     25.34% |         966      0.22%     25.56% |         942      0.21%     25.77% |         937      0.21%     25.98% |         886      0.20%     26.18% |         927      0.21%     26.39% |         987      0.22%     26.61% |         947      0.21%     26.82% |         947      0.21%     27.03% |         950      0.21%     27.25% |         899      0.20%     27.45% |          85      0.02%     27.47% # delay distribution for stores (Unspecified)
system.cpu3.storeLatencyDist::overflows        322955     72.53%    100.00% # delay distribution for stores (Unspecified)
system.cpu3.storeLatencyDist::min_value        249000                       # delay distribution for stores (Unspecified)
system.cpu3.storeLatencyDist::max_value      14232000                       # delay distribution for stores (Unspecified)
system.cpu3.storeLatencyDist::total            445262                       # delay distribution for stores (Unspecified)
system.cpu3.initToCoalesceLatency::bucket_size        10000                       # Ticks from vmem inst initiateAcc to coalescer issue (Unspecified)
system.cpu3.initToCoalesceLatency::min_bucket            0                       # Ticks from vmem inst initiateAcc to coalescer issue (Unspecified)
system.cpu3.initToCoalesceLatency::max_bucket      1600000                       # Ticks from vmem inst initiateAcc to coalescer issue (Unspecified)
system.cpu3.initToCoalesceLatency::samples            0                       # Ticks from vmem inst initiateAcc to coalescer issue (Unspecified)
system.cpu3.initToCoalesceLatency::mean           nan                       # Ticks from vmem inst initiateAcc to coalescer issue (Unspecified)
system.cpu3.initToCoalesceLatency::stdev          nan                       # Ticks from vmem inst initiateAcc to coalescer issue (Unspecified)
system.cpu3.initToCoalesceLatency::underflows            0                       # Ticks from vmem inst initiateAcc to coalescer issue (Unspecified)
[...]
system.cpu3.cacheBlockRoundTrip7::overflows            0                       # Coalsr-to-coalsr time for the Nth cache block in an inst (Unspecified)
system.cpu3.cacheBlockRoundTrip7::min_value            0                       # Coalsr-to-coalsr time for the Nth cache block in an inst (Unspecified)
system.cpu3.cacheBlockRoundTrip7::max_value            0                       # Coalsr-to-coalsr time for the Nth cache block in an inst (Unspecified)
system.cpu3.cacheBlockRoundTrip7::total             0                       # Coalsr-to-coalsr time for the Nth cache block in an inst (Unspecified)
system.cpu3.cacheBlockRoundTrip8::bucket_size        10000                       # Coalsr-to-coalsr time for the Nth cache block in an inst (Unspecified)
system.cpu3.cacheBlockRoundTrip8::min_bucket            0                       # Coalsr-to-coalsr time for the Nth cache block in an inst (Unspecified)
system.cpu3.cacheBlockRoundTrip8::max_bucket      1600000                       # Coalsr-to-coalsr time for the Nth cache block in an inst (Unspecified)
system.cpu3.cacheBlockRoundTrip8::samples            0                       # Coalsr-to-coalsr time for the Nth cache block in an inst (Unspecified)
system.cpu3.cacheBlockRoundTrip8::mean            nan                       # Coalsr-to-coalsr time for the Nth cache block in an inst (Unspecified)
system.cpu3.cacheBlockRoundTrip8::stdev           nan                       # Coalsr-to-coalsr time for the Nth cache block in an inst (Unspecified)
system.cpu3.cacheBlockRoundTrip8::underflows            0                       # Coalsr-to-coalsr time for the Nth cache block in an inst (Unspecified)
system.cpu3.cacheBlockRoundTrip8         |           0                       |           0                       |           0                       |           0                       |           0                       |           0                       |           0                       |           0                       |           0                       |           0                       |           0                       |           0                       |           0                       |           0                       |           0                       |           0                       |           0                       |           0                       |           0                       |           0                       |           0                       |           0                       |           0                       |           0                       |           0                       |           0                       |           0                       |           0                       |           0                       |           0                       |           0                       |           0                       |           0                       |           0                       |           0                       |           0                       |           0                       |           0                       |           0                       |           0                       |           0                       |           0                       |           0                       |           0                       |           0                       |           0                       |           0                       |           0                       |           0                       |           0                       |           0                       |           0                       |           0                       |           0                       |           0                       |           0                       |           0                       |           0                       |           0                       |           0                       |           0                       |           0                       |           0                       |           0                       |           0                       |           0                       |           0                       |           0                       |           0                       |           0                       |           0                       |           0                       |           0                       |           0                       |           0                       |           0                       |           0                       |           0                       |           0                       |           0                       |           0                       |           0                       |           0                       |           0                       |           0                       |           0                       |           0                       |           0                       |           0                       |           0                       |           0                       |           0                       |           0                       |           0                       |           0                       |           0                       |           0                       |           0                       |           0                       |           0                       |           0                       |           0                       |           0                       |           0                       |           0                       |           0                       |           0                       |           0                       |           0                       |           0                       |           0                       |           0                       |           0                       |           0                       |           0                       |           0                       |           0                       |           0                       |           0                       |           0                       |           0                       |           0                       |           0                       |           0                       |           0                       |           0                       |           0                       |           0                       |           0                       |           0                       |           0                       |           0                       |           0                       |           0                       |           0                       |           0                       |           0                       |           0                       |           0                       |           0                       |           0                       |           0                       |           0                       |           0                       |           0                       |           0                       |           0                       |           0                       |           0                       |           0                       |           0                       |           0                       |           0                       |           0                       |           0                       |           0                       |           0                       |           0                       |           0                       |           0                       |           0                       # Coalsr-to-coalsr time for the Nth cache block in an inst (Unspecified)
system.cpu3.cacheBlockRoundTrip8::overflows            0                       # Coalsr-to-coalsr time for the Nth cache block in an inst (Unspecified)
system.cpu3.cacheBlockRoundTrip8::min_value            0                       # Coalsr-to-coalsr time for the Nth cache block in an inst (Unspecified)
system.cpu3.cacheBlockRoundTrip8::max_value            0                       # Coalsr-to-coalsr time for the Nth cache block in an inst (Unspecified)
system.cpu3.cacheBlockRoundTrip8::total             0                       # Coalsr-to-coalsr time for the Nth cache block in an inst (Unspecified)
system.cpu3.cacheBlockRoundTrip9::bucket_size        10000                       # Coalsr-to-coalsr time for the Nth cache block in an inst (Unspecified)
system.cpu3.cacheBlockRoundTrip9::min_bucket            0                       # Coalsr-to-coalsr time for the Nth cache block in an inst (Unspecified)
system.cpu3.cacheBlockRoundTrip9::max_bucket      1600000                       # Coalsr-to-coalsr time for the Nth cache block in an inst (Unspecified)
system.cpu3.cacheBlockRoundTrip9::samples            0                       # Coalsr-to-coalsr time for the Nth cache block in an inst (Unspecified)
system.cpu3.cacheBlockRoundTrip9::mean            nan                       # Coalsr-to-coalsr time for the Nth cache block in an inst (Unspecified)
system.cpu3.cacheBlockRoundTrip9::stdev           nan                       # Coalsr-to-coalsr time for the Nth cache block in an inst (Unspecified)
system.cpu3.cacheBlockRoundTrip9::underflows            0                       # Coalsr-to-coalsr time for the Nth cache block in an inst (Unspecified)
system.cpu3.cacheBlockRoundTrip9         |           0                       |           0                       |           0                       |           0                       |           0                       |           0                       |           0                       |           0                       |           0                       |           0                       |           0                       |           0                       |           0                       |           0                       |           0                       |           0                       |           0                       |           0                       |           0                       |           0                       |           0                       |           0                       |           0                       |           0                       |           0                       |           0                       |           0                       |           0                       |           0                       |           0                       |           0                       |           0                       |           0                       |           0                       |           0                       |           0                       |           0                       |           0                       |           0                       |           0                       |           0                       |           0                       |           0                       |           0                       |           0                       |           0                       |           0                       |           0                       |           0                       |           0                       |           0                       |           0                       |           0                       |           0                       |           0                       |           0                       |           0                       |           0                       |           0                       |           0                       |           0                       |           0                       |           0                       |           0                       |           0                       |           0                       |           0                       |           0                       |           0                       |           0                       |           0                       |           0                       |           0                       |           0                       |           0                       |           0                       |           0                       |           0                       |           0                       |           0                       |           0                       |           0                       |           0                       |           0                       |           0                       |           0                       |           0                       |           0                       |           0                       |           0                       |           0                       |           0                       |           0                       |           0                       |           0                       |           0                       |           0                       |           0                       |           0                       |           0                       |           0                       |           0                       |           0                       |           0                       |           0                       |           0                       |           0                       |           0                       |           0                       |           0                       |           0                       |           0                       |           0                       |           0                       |           0                       |           0                       |           0                       |           0                       |           0                       |           0                       |           0                       |           0                       |           0                       |           0                       |           0                       |           0                       |           0                       |           0                       |           0                       |           0                       |           0                       |           0                       |           0                       |           0                       |           0                       |           0                       |           0                       |           0                       |           0                       |           0                       |           0                       |           0                       |           0                       |           0                       |           0                       |           0                       |           0                       |           0                       |           0                       |           0                       |           0                       |           0                       |           0                       |           0                       |           0                       |           0                       |           0                       |           0                       |           0                       |           0                       |           0                       # Coalsr-to-coalsr time for the Nth cache block in an inst (Unspecified)
system.cpu3.cacheBlockRoundTrip9::overflows            0                       # Coalsr-to-coalsr time for the Nth cache block in an inst (Unspecified)
system.cpu3.cacheBlockRoundTrip9::min_value            0                       # Coalsr-to-coalsr time for the Nth cache block in an inst (Unspecified)
system.cpu3.cacheBlockRoundTrip9::max_value            0                       # Coalsr-to-coalsr time for the Nth cache block in an inst (Unspecified)
system.cpu3.cacheBlockRoundTrip9::total             0                       # Coalsr-to-coalsr time for the Nth cache block in an inst (Unspecified)

---------- End Simulation Statistics   ----------
