
---------- Begin Simulation Statistics ----------
simSeconds                                   1.218340                       # Number of seconds simulated (Second)
simTicks                                 1218340135000                       # Number of ticks simulated (Tick)
finalTick                                1218340135000                       # Number of ticks from beginning of simulation (restored from checkpoints and never reset) (Tick)
simFreq                                  1000000000000                       # The number of ticks per simulated second ((Tick/Second))
hostSeconds                                   2450.23                       # Real time elapsed on the host (Second)
hostTickRate                                497235643                       # The number of ticks simulated per host second (ticks/s) ((Tick/Second))
hostMemory                                   26055628                       # Number of bytes of host memory used (Byte)
simInsts                                    545375988                       # Number of instructions simulated (Count)
simOps                                     1037785042                       # Number of ops (including micro ops) simulated (Count)
hostInstRate                                   222582                       # Simulator instruction rate (inst/s) ((Count/Second))
hostOpRate                                     423546                       # Simulator op (including micro ops) rate (op/s) ((Count/Second))
system.work_item_type0::samples                     1                       # Run time stat forwork_item_type0 (Unspecified)
system.work_item_type0::mean             167751862000                       # Run time stat forwork_item_type0 (Unspecified)
system.work_item_type0::gmean            167751861999.999908                       # Run time stat forwork_item_type0 (Unspecified)
system.work_item_type0::stdev                     nan                       # Run time stat forwork_item_type0 (Unspecified)
system.work_item_type0::0-8.58993e+09               0      0.00%      0.00% # Run time stat forwork_item_type0 (Unspecified)
system.work_item_type0::8.58993e+09-1.71799e+10            0      0.00%      0.00% # Run time stat forwork_item_type0 (Unspecified)
system.work_item_type0::1.71799e+10-2.57698e+10            0      0.00%      0.00% # Run time stat forwork_item_type0 (Unspecified)
system.work_item_type0::2.57698e+10-3.43597e+10            0      0.00%      0.00% # Run time stat forwork_item_type0 (Unspecified)
system.work_item_type0::3.43597e+10-4.29497e+10            0      0.00%      0.00% # Run time stat forwork_item_type0 (Unspecified)
system.work_item_type0::4.29497e+10-5.15396e+10            0      0.00%      0.00% # Run time stat forwork_item_type0 (Unspecified)
system.work_item_type0::5.15396e+10-6.01295e+10            0      0.00%      0.00% # Run time stat forwork_item_type0 (Unspecified)
system.work_item_type0::6.01295e+10-6.87195e+10            0      0.00%      0.00% # Run time stat forwork_item_type0 (Unspecified)
system.work_item_type0::6.87195e+10-7.73094e+10            0      0.00%      0.00% # Run time stat forwork_item_type0 (Unspecified)
system.work_item_type0::7.73094e+10-8.58993e+10            0      0.00%      0.00% # Run time stat forwork_item_type0 (Unspecified)
system.work_item_type0::8.58993e+10-9.44893e+10            0      0.00%      0.00% # Run time stat forwork_item_type0 (Unspecified)
system.work_item_type0::9.44893e+10-1.03079e+11            0      0.00%      0.00% # Run time stat forwork_item_type0 (Unspecified)
system.work_item_type0::1.03079e+11-1.11669e+11            0      0.00%      0.00% # Run time stat forwork_item_type0 (Unspecified)
system.work_item_type0::1.11669e+11-1.20259e+11            0      0.00%      0.00% # Run time stat forwork_item_type0 (Unspecified)
system.work_item_type0::1.20259e+11-1.28849e+11            0      0.00%      0.00% # Run time stat forwork_item_type0 (Unspecified)
system.work_item_type0::1.28849e+11-1.37439e+11            0      0.00%      0.00% # Run time stat forwork_item_type0 (Unspecified)
system.work_item_type0::1.37439e+11-1.46029e+11            0      0.00%      0.00% # Run time stat forwork_item_type0 (Unspecified)
system.work_item_type0::1.46029e+11-1.54619e+11            0      0.00%      0.00% # Run time stat forwork_item_type0 (Unspecified)
system.work_item_type0::1.54619e+11-1.63209e+11            0      0.00%      0.00% # Run time stat forwork_item_type0 (Unspecified)
system.work_item_type0::1.63209e+11-1.71799e+11            1    100.00%    100.00% # Run time stat forwork_item_type0 (Unspecified)
system.work_item_type0::total                       1                       # Run time stat forwork_item_type0 (Unspecified)
system.clk_domain.clock                          1000                       # Clock period in ticks (Tick)
system.cpu0.numCycles                      2436680270                       # Number of cpu cycles simulated (Cycle)
system.cpu0.numWorkItemsStarted                     1                       # Number of work items this cpu started (Count)
system.cpu0.numWorkItemsCompleted                   1                       # Number of work items this cpu completed (Count)
system.cpu0.clk_domain.clock                      500                       # Clock period in ticks (Tick)
system.cpu0.clk_domain.voltage_domain.voltage            1                       # Voltage in Volts (Volt)
system.cpu0.exec_context.thread_0.numInsts    500230638                       # Number of instructions committed (Count)
system.cpu0.exec_context.thread_0.numOps    949698788                       # Number of ops (including micro ops) committed (Count)
system.cpu0.exec_context.thread_0.numIntAluAccesses    923063933                       # Number of integer alu accesses (Count)
system.cpu0.exec_context.thread_0.numFpAluAccesses     18014136                       # Number of float alu accesses (Count)
system.cpu0.exec_context.thread_0.numVecAluAccesses            0                       # Number of vector alu accesses (Count)
system.cpu0.exec_context.thread_0.numCallsReturns     30277416                       # Number of times a function call or return occured (Count)
system.cpu0.exec_context.thread_0.numCondCtrlInsts     83040292                       # Number of instructions that are conditional controls (Count)
system.cpu0.exec_context.thread_0.numIntInsts    923063933                       # Number of integer instructions (Count)
system.cpu0.exec_context.thread_0.numFpInsts     18014136                       # Number of float instructions (Count)
system.cpu0.exec_context.thread_0.numVecInsts            0                       # Number of vector instructions (Count)
system.cpu0.exec_context.thread_0.numIntRegReads   1078642375                       # Number of times the integer registers were read (Count)
system.cpu0.exec_context.thread_0.numIntRegWrites    627527006                       # Number of times the integer registers were written (Count)
system.cpu0.exec_context.thread_0.numFpRegReads     19210868                       # Number of times the floating registers were read (Count)
system.cpu0.exec_context.thread_0.numFpRegWrites     11555838                       # Number of times the floating registers were written (Count)
system.cpu0.exec_context.thread_0.numVecRegReads            0                       # Number of times the vector registers were read (Count)
system.cpu0.exec_context.thread_0.numVecRegWrites            0                       # Number of times the vector registers were written (Count)
system.cpu0.exec_context.thread_0.numVecPredRegReads            0                       # Number of times the predicate registers were read (Count)
system.cpu0.exec_context.thread_0.numVecPredRegWrites            0                       # Number of times the predicate registers were written (Count)
system.cpu0.exec_context.thread_0.numCCRegReads    547480871                       # Number of times the CC registers were read (Count)
system.cpu0.exec_context.thread_0.numCCRegWrites    261008818                       # Number of times the CC registers were written (Count)
system.cpu0.exec_context.thread_0.numMiscRegReads    459488474                       # Number of times the Misc registers were read (Count)
system.cpu0.exec_context.thread_0.numMiscRegWrites         4781                       # Number of times the Misc registers were written (Count)
system.cpu0.exec_context.thread_0.numMemRefs    202168342                       # Number of memory refs (Count)
system.cpu0.exec_context.thread_0.numLoadInsts    130443133                       # Number of load instructions (Count)
system.cpu0.exec_context.thread_0.numStoreInsts     71725209                       # Number of store instructions (Count)
system.cpu0.exec_context.thread_0.numIdleCycles 8378922.001993                       # Number of idle cycles (Cycle)
system.cpu0.exec_context.thread_0.numBusyCycles 2428301347.998007                       # Number of busy cycles (Cycle)
system.cpu0.exec_context.thread_0.notIdleFraction     0.996561                       # Percentage of non-idle cycles (Ratio)
system.cpu0.exec_context.thread_0.idleFraction     0.003439                       # Percentage of idle cycles (Ratio)
system.cpu0.exec_context.thread_0.numBranches    134825815                       # Number of branches fetched (Count)
system.cpu0.exec_context.thread_0.statExecutedInstType::No_OpClass     19297869      2.02%      2.02% # Class of executed instruction. (Count)
system.cpu0.exec_context.thread_0.statExecutedInstType::IntAlu    726547789     75.91%     77.93% # Class of executed instruction. (Count)
system.cpu0.exec_context.thread_0.statExecutedInstType::IntMult      1231376      0.13%     78.06% # Class of executed instruction. (Count)
system.cpu0.exec_context.thread_0.statExecutedInstType::IntDiv       125246      0.01%     78.07% # Class of executed instruction. (Count)
system.cpu0.exec_context.thread_0.statExecutedInstType::FloatAdd      1809282      0.19%     78.26% # Class of executed instruction. (Count)
system.cpu0.exec_context.thread_0.statExecutedInstType::FloatCmp           66      0.00%     78.26% # Class of executed instruction. (Count)
system.cpu0.exec_context.thread_0.statExecutedInstType::FloatCvt         7292      0.00%     78.26% # Class of executed instruction. (Count)
system.cpu0.exec_context.thread_0.statExecutedInstType::FloatMult           22      0.00%     78.26% # Class of executed instruction. (Count)
system.cpu0.exec_context.thread_0.statExecutedInstType::FloatMultAcc            0      0.00%     78.26% # Class of executed instruction. (Count)
system.cpu0.exec_context.thread_0.statExecutedInstType::FloatDiv           22      0.00%     78.26% # Class of executed instruction. (Count)
system.cpu0.exec_context.thread_0.statExecutedInstType::FloatMisc            0      0.00%     78.26% # Class of executed instruction. (Count)
system.cpu0.exec_context.thread_0.statExecutedInstType::FloatSqrt            0      0.00%     78.26% # Class of executed instruction. (Count)
system.cpu0.exec_context.thread_0.statExecutedInstType::SimdAdd        21010      0.00%     78.26% # Class of executed instruction. (Count)
system.cpu0.exec_context.thread_0.statExecutedInstType::SimdAddAcc            0      0.00%     78.26% # Class of executed instruction. (Count)
system.cpu0.exec_context.thread_0.statExecutedInstType::SimdAlu       921513      0.10%     78.36% # Class of executed instruction. (Count)
system.cpu0.exec_context.thread_0.statExecutedInstType::SimdCmp         3078      0.00%     78.36% # Class of executed instruction. (Count)
system.cpu0.exec_context.thread_0.statExecutedInstType::SimdCvt       662706      0.07%     78.43% # Class of executed instruction. (Count)
system.cpu0.exec_context.thread_0.statExecutedInstType::SimdMisc      3476374      0.36%     78.79% # Class of executed instruction. (Count)
system.cpu0.exec_context.thread_0.statExecutedInstType::SimdMult            0      0.00%     78.79% # Class of executed instruction. (Count)
system.cpu0.exec_context.thread_0.statExecutedInstType::SimdMultAcc            0      0.00%     78.79% # Class of executed instruction. (Count)
system.cpu0.exec_context.thread_0.statExecutedInstType::SimdShift         9032      0.00%     78.79% # Class of executed instruction. (Count)
system.cpu0.exec_context.thread_0.statExecutedInstType::SimdShiftAcc            0      0.00%     78.79% # Class of executed instruction. (Count)
system.cpu0.exec_context.thread_0.statExecutedInstType::SimdDiv            0      0.00%     78.79% # Class of executed instruction. (Count)
system.cpu0.exec_context.thread_0.statExecutedInstType::SimdSqrt            0      0.00%     78.79% # Class of executed instruction. (Count)
system.cpu0.exec_context.thread_0.statExecutedInstType::SimdFloatAdd        92611      0.01%     78.80% # Class of executed instruction. (Count)
system.cpu0.exec_context.thread_0.statExecutedInstType::SimdFloatAlu            0      0.00%     78.80% # Class of executed instruction. (Count)
system.cpu0.exec_context.thread_0.statExecutedInstType::SimdFloatCmp            0      0.00%     78.80% # Class of executed instruction. (Count)
system.cpu0.exec_context.thread_0.statExecutedInstType::SimdFloatCvt       555727      0.06%     78.86% # Class of executed instruction. (Count)
system.cpu0.exec_context.thread_0.statExecutedInstType::SimdFloatDiv            5      0.00%     78.86% # Class of executed instruction. (Count)
system.cpu0.exec_context.thread_0.statExecutedInstType::SimdFloatMisc            0      0.00%     78.86% # Class of executed instruction. (Count)
system.cpu0.exec_context.thread_0.statExecutedInstType::SimdFloatMult       185247      0.02%     78.88% # Class of executed instruction. (Count)
system.cpu0.exec_context.thread_0.statExecutedInstType::SimdFloatMultAcc            0      0.00%     78.88% # Class of executed instruction. (Count)
system.cpu0.exec_context.thread_0.statExecutedInstType::SimdFloatSqrt            0      0.00%     78.88% # Class of executed instruction. (Count)
system.cpu0.exec_context.thread_0.statExecutedInstType::SimdReduceAdd            0      0.00%     78.88% # Class of executed instruction. (Count)
system.cpu0.exec_context.thread_0.statExecutedInstType::SimdReduceAlu            0      0.00%     78.88% # Class of executed instruction. (Count)
system.cpu0.exec_context.thread_0.statExecutedInstType::SimdReduceCmp            0      0.00%     78.88% # Class of executed instruction. (Count)
system.cpu0.exec_context.thread_0.statExecutedInstType::SimdFloatReduceAdd            0      0.00%     78.88% # Class of executed instruction. (Count)
system.cpu0.exec_context.thread_0.statExecutedInstType::SimdFloatReduceCmp            0      0.00%     78.88% # Class of executed instruction. (Count)
system.cpu0.exec_context.thread_0.statExecutedInstType::SimdAes            0      0.00%     78.88% # Class of executed instruction. (Count)
system.cpu0.exec_context.thread_0.statExecutedInstType::SimdAesMix            0      0.00%     78.88% # Class of executed instruction. (Count)
system.cpu0.exec_context.thread_0.statExecutedInstType::SimdSha1Hash            0      0.00%     78.88% # Class of executed instruction. (Count)
system.cpu0.exec_context.thread_0.statExecutedInstType::SimdSha1Hash2            0      0.00%     78.88% # Class of executed instruction. (Count)
system.cpu0.exec_context.thread_0.statExecutedInstType::SimdSha256Hash            0      0.00%     78.88% # Class of executed instruction. (Count)
system.cpu0.exec_context.thread_0.statExecutedInstType::SimdSha256Hash2            0      0.00%     78.88% # Class of executed instruction. (Count)
system.cpu0.exec_context.thread_0.statExecutedInstType::SimdShaSigma2            0      0.00%     78.88% # Class of executed instruction. (Count)
system.cpu0.exec_context.thread_0.statExecutedInstType::SimdShaSigma3            0      0.00%     78.88% # Class of executed instruction. (Count)
system.cpu0.exec_context.thread_0.statExecutedInstType::SimdPredAlu            0      0.00%     78.88% # Class of executed instruction. (Count)
system.cpu0.exec_context.thread_0.statExecutedInstType::MemRead    126754292     13.24%     92.12% # Class of executed instruction. (Count)
system.cpu0.exec_context.thread_0.statExecutedInstType::MemWrite     66280142      6.92%     99.05% # Class of executed instruction. (Count)
system.cpu0.exec_context.thread_0.statExecutedInstType::FloatMemRead      3688841      0.39%     99.43% # Class of executed instruction. (Count)
system.cpu0.exec_context.thread_0.statExecutedInstType::FloatMemWrite      5445067      0.57%    100.00% # Class of executed instruction. (Count)
system.cpu0.exec_context.thread_0.statExecutedInstType::IprAccess            0      0.00%    100.00% # Class of executed instruction. (Count)
system.cpu0.exec_context.thread_0.statExecutedInstType::InstPrefetch            0      0.00%    100.00% # Class of executed instruction. (Count)
system.cpu0.exec_context.thread_0.statExecutedInstType::total    957114609                       # Class of executed instruction. (Count)
system.cpu0.interrupts.clk_domain.clock          8000                       # Clock period in ticks (Tick)
system.cpu0.mmu.dtb.rdAccesses              131340613                       # TLB accesses on read requests (Count)
system.cpu0.mmu.dtb.wrAccesses               72019055                       # TLB accesses on write requests (Count)
system.cpu0.mmu.dtb.rdMisses                    28677                       # TLB misses on read requests (Count)
system.cpu0.mmu.dtb.wrMisses                    19497                       # TLB misses on write requests (Count)
system.cpu0.mmu.dtb.walker.power_state.pwrStateResidencyTicks::UNDEFINED 1218340135000                       # Cumulative time (in ticks) in various power states (Tick)
system.cpu0.mmu.itb.rdAccesses                      0                       # TLB accesses on read requests (Count)
system.cpu0.mmu.itb.wrAccesses              675541338                       # TLB accesses on write requests (Count)
system.cpu0.mmu.itb.rdMisses                        0                       # TLB misses on read requests (Count)
system.cpu0.mmu.itb.wrMisses                     4537                       # TLB misses on write requests (Count)
system.cpu0.mmu.itb.walker.power_state.pwrStateResidencyTicks::UNDEFINED 1218340135000                       # Cumulative time (in ticks) in various power states (Tick)
system.cpu0.power_state.numTransitions             20                       # Number of power state transitions (Count)
system.cpu0.power_state.ticksClkGated::samples           10                       # Distribution of time spent in the clock gated state (Tick)
system.cpu0.power_state.ticksClkGated::mean    418946100                       # Distribution of time spent in the clock gated state (Tick)
system.cpu0.power_state.ticksClkGated::stdev 1284866819.586541                       # Distribution of time spent in the clock gated state (Tick)
system.cpu0.power_state.ticksClkGated::1000-5e+10           10    100.00%    100.00% # Distribution of time spent in the clock gated state (Tick)
system.cpu0.power_state.ticksClkGated::min_value       136000                       # Distribution of time spent in the clock gated state (Tick)
system.cpu0.power_state.ticksClkGated::max_value   4075059000                       # Distribution of time spent in the clock gated state (Tick)
system.cpu0.power_state.ticksClkGated::total           10                       # Distribution of time spent in the clock gated state (Tick)
system.cpu0.power_state.pwrStateResidencyTicks::ON 1214150674000                       # Cumulative time (in ticks) in various power states (Tick)
system.cpu0.power_state.pwrStateResidencyTicks::CLK_GATED   4189461000                       # Cumulative time (in ticks) in various power states (Tick)
system.cpu0.thread_0.numInsts                       0                       # Number of Instructions committed (Count)
system.cpu0.thread_0.numOps                         0                       # Number of Ops committed (Count)
system.cpu0.thread_0.numMemRefs                     0                       # Number of Memory References (Count)
system.cpu0.workload.numSyscalls              7115323                       # Number of system calls (Count)
system.cpu0.workload.drivers0.device.dispatcher.numKernelLaunched          610                       # number of kernel launched (Unspecified)
system.cpu0.workload.drivers0.device.dispatcher.cyclesWaitingForDispatch         1830                       # number of cycles with outstanding wavefronts that are waiting to be dispatched (Unspecified)
system.cpu0.workload.drivers0.device.hsapp.power_state.pwrStateResidencyTicks::UNDEFINED 1218340135000                       # Cumulative time (in ticks) in various power states (Tick)
system.cpu0.workload.drivers0.device.hsapp.walker.power_state.pwrStateResidencyTicks::UNDEFINED 1218340135000                       # Cumulative time (in ticks) in various power states (Tick)
system.cpu0.workload.drivers0.device.power_state.pwrStateResidencyTicks::UNDEFINED 1218340135000                       # Cumulative time (in ticks) in various power states (Tick)
system.cpu0.workload.drivers0.device.walker.power_state.pwrStateResidencyTicks::UNDEFINED 1218340135000                       # Cumulative time (in ticks) in various power states (Tick)
system.cpu1.numCycles                      2090888906                       # Number of cpu cycles simulated (Cycle)
system.cpu1.numWorkItemsStarted                     0                       # Number of work items this cpu started (Count)
system.cpu1.numWorkItemsCompleted                   0                       # Number of work items this cpu completed (Count)
system.cpu1.clk_domain.clock                      500                       # Clock period in ticks (Tick)
system.cpu1.clk_domain.voltage_domain.voltage            1                       # Voltage in Volts (Volt)
system.cpu1.exec_context.thread_0.numInsts       345951                       # Number of instructions committed (Count)
system.cpu1.exec_context.thread_0.numOps       644290                       # Number of ops (including micro ops) committed (Count)
system.cpu1.exec_context.thread_0.numIntAluAccesses       620861                       # Number of integer alu accesses (Count)
system.cpu1.exec_context.thread_0.numFpAluAccesses        20274                       # Number of float alu accesses (Count)
system.cpu1.exec_context.thread_0.numVecAluAccesses            0                       # Number of vector alu accesses (Count)
system.cpu1.exec_context.thread_0.numCallsReturns        18136                       # Number of times a function call or return occured (Count)
system.cpu1.exec_context.thread_0.numCondCtrlInsts        89474                       # Number of instructions that are conditional controls (Count)
system.cpu1.exec_context.thread_0.numIntInsts       620861                       # Number of integer instructions (Count)
system.cpu1.exec_context.thread_0.numFpInsts        20274                       # Number of float instructions (Count)
system.cpu1.exec_context.thread_0.numVecInsts            0                       # Number of vector instructions (Count)
system.cpu1.exec_context.thread_0.numIntRegReads       676388                       # Number of times the integer registers were read (Count)
system.cpu1.exec_context.thread_0.numIntRegWrites       403645                       # Number of times the integer registers were written (Count)
system.cpu1.exec_context.thread_0.numFpRegReads        24400                       # Number of times the floating registers were read (Count)
system.cpu1.exec_context.thread_0.numFpRegWrites        17016                       # Number of times the floating registers were written (Count)
system.cpu1.exec_context.thread_0.numVecRegReads            0                       # Number of times the vector registers were read (Count)
system.cpu1.exec_context.thread_0.numVecRegWrites            0                       # Number of times the vector registers were written (Count)
system.cpu1.exec_context.thread_0.numVecPredRegReads            0                       # Number of times the predicate registers were read (Count)
system.cpu1.exec_context.thread_0.numVecPredRegWrites            0                       # Number of times the predicate registers were written (Count)
system.cpu1.exec_context.thread_0.numCCRegReads       546947                       # Number of times the CC registers were read (Count)
system.cpu1.exec_context.thread_0.numCCRegWrites       187488                       # Number of times the CC registers were written (Count)
system.cpu1.exec_context.thread_0.numMiscRegReads       374485                       # Number of times the Misc registers were read (Count)
system.cpu1.exec_context.thread_0.numMiscRegWrites           27                       # Number of times the Misc registers were written (Count)
system.cpu1.exec_context.thread_0.numMemRefs       158848                       # Number of memory refs (Count)
system.cpu1.exec_context.thread_0.numLoadInsts       144092                       # Number of load instructions (Count)
system.cpu1.exec_context.thread_0.numStoreInsts        14756                       # Number of store instructions (Count)
system.cpu1.exec_context.thread_0.numIdleCycles 2089742924.505466                       # Number of idle cycles (Cycle)
system.cpu1.exec_context.thread_0.numBusyCycles 1145981.494534                       # Number of busy cycles (Cycle)
system.cpu1.exec_context.thread_0.notIdleFraction     0.000548                       # Percentage of non-idle cycles (Ratio)
system.cpu1.exec_context.thread_0.idleFraction     0.999452                       # Percentage of idle cycles (Ratio)
system.cpu1.exec_context.thread_0.numBranches       110296                       # Number of branches fetched (Count)
system.cpu1.exec_context.thread_0.statExecutedInstType::No_OpClass        10543      1.64%      1.64% # Class of executed instruction. (Count)
system.cpu1.exec_context.thread_0.statExecutedInstType::IntAlu       460766     71.51%     73.15% # Class of executed instruction. (Count)
system.cpu1.exec_context.thread_0.statExecutedInstType::IntMult            3      0.00%     73.15% # Class of executed instruction. (Count)
system.cpu1.exec_context.thread_0.statExecutedInstType::IntDiv           75      0.01%     73.16% # Class of executed instruction. (Count)
system.cpu1.exec_context.thread_0.statExecutedInstType::FloatAdd         2868      0.45%     73.61% # Class of executed instruction. (Count)
system.cpu1.exec_context.thread_0.statExecutedInstType::FloatCmp            0      0.00%     73.61% # Class of executed instruction. (Count)
system.cpu1.exec_context.thread_0.statExecutedInstType::FloatCvt           48      0.01%     73.62% # Class of executed instruction. (Count)
system.cpu1.exec_context.thread_0.statExecutedInstType::FloatMult            0      0.00%     73.62% # Class of executed instruction. (Count)
system.cpu1.exec_context.thread_0.statExecutedInstType::FloatMultAcc            0      0.00%     73.62% # Class of executed instruction. (Count)
system.cpu1.exec_context.thread_0.statExecutedInstType::FloatDiv            0      0.00%     73.62% # Class of executed instruction. (Count)
system.cpu1.exec_context.thread_0.statExecutedInstType::FloatMisc            0      0.00%     73.62% # Class of executed instruction. (Count)
system.cpu1.exec_context.thread_0.statExecutedInstType::FloatSqrt            0      0.00%     73.62% # Class of executed instruction. (Count)
system.cpu1.exec_context.thread_0.statExecutedInstType::SimdAdd           20      0.00%     73.62% # Class of executed instruction. (Count)
system.cpu1.exec_context.thread_0.statExecutedInstType::SimdAddAcc            0      0.00%     73.62% # Class of executed instruction. (Count)
system.cpu1.exec_context.thread_0.statExecutedInstType::SimdAlu         2760      0.43%     74.05% # Class of executed instruction. (Count)
system.cpu1.exec_context.thread_0.statExecutedInstType::SimdCmp            0      0.00%     74.05% # Class of executed instruction. (Count)
system.cpu1.exec_context.thread_0.statExecutedInstType::SimdCvt           40      0.01%     74.05% # Class of executed instruction. (Count)
system.cpu1.exec_context.thread_0.statExecutedInstType::SimdMisc         1545      0.24%     74.29% # Class of executed instruction. (Count)
system.cpu1.exec_context.thread_0.statExecutedInstType::SimdMult            0      0.00%     74.29% # Class of executed instruction. (Count)
system.cpu1.exec_context.thread_0.statExecutedInstType::SimdMultAcc            0      0.00%     74.29% # Class of executed instruction. (Count)
system.cpu1.exec_context.thread_0.statExecutedInstType::SimdShift           21      0.00%     74.30% # Class of executed instruction. (Count)
system.cpu1.exec_context.thread_0.statExecutedInstType::SimdShiftAcc            0      0.00%     74.30% # Class of executed instruction. (Count)
system.cpu1.exec_context.thread_0.statExecutedInstType::SimdDiv            0      0.00%     74.30% # Class of executed instruction. (Count)
system.cpu1.exec_context.thread_0.statExecutedInstType::SimdSqrt            0      0.00%     74.30% # Class of executed instruction. (Count)
system.cpu1.exec_context.thread_0.statExecutedInstType::SimdFloatAdd         1352      0.21%     74.51% # Class of executed instruction. (Count)
system.cpu1.exec_context.thread_0.statExecutedInstType::SimdFloatAlu            0      0.00%     74.51% # Class of executed instruction. (Count)
system.cpu1.exec_context.thread_0.statExecutedInstType::SimdFloatCmp            0      0.00%     74.51% # Class of executed instruction. (Count)
system.cpu1.exec_context.thread_0.statExecutedInstType::SimdFloatCvt         4050      0.63%     75.13% # Class of executed instruction. (Count)
system.cpu1.exec_context.thread_0.statExecutedInstType::SimdFloatDiv            7      0.00%     75.14% # Class of executed instruction. (Count)
system.cpu1.exec_context.thread_0.statExecutedInstType::SimdFloatMisc            0      0.00%     75.14% # Class of executed instruction. (Count)
system.cpu1.exec_context.thread_0.statExecutedInstType::SimdFloatMult         1353      0.21%     75.35% # Class of executed instruction. (Count)
system.cpu1.exec_context.thread_0.statExecutedInstType::SimdFloatMultAcc            0      0.00%     75.35% # Class of executed instruction. (Count)
system.cpu1.exec_context.thread_0.statExecutedInstType::SimdFloatSqrt            0      0.00%     75.35% # Class of executed instruction. (Count)
system.cpu1.exec_context.thread_0.statExecutedInstType::SimdReduceAdd            0      0.00%     75.35% # Class of executed instruction. (Count)
system.cpu1.exec_context.thread_0.statExecutedInstType::SimdReduceAlu            0      0.00%     75.35% # Class of executed instruction. (Count)
system.cpu1.exec_context.thread_0.statExecutedInstType::SimdReduceCmp            0      0.00%     75.35% # Class of executed instruction. (Count)
system.cpu1.exec_context.thread_0.statExecutedInstType::SimdFloatReduceAdd            0      0.00%     75.35% # Class of executed instruction. (Count)
system.cpu1.exec_context.thread_0.statExecutedInstType::SimdFloatReduceCmp            0      0.00%     75.35% # Class of executed instruction. (Count)
system.cpu1.exec_context.thread_0.statExecutedInstType::SimdAes            0      0.00%     75.35% # Class of executed instruction. (Count)
system.cpu1.exec_context.thread_0.statExecutedInstType::SimdAesMix            0      0.00%     75.35% # Class of executed instruction. (Count)
system.cpu1.exec_context.thread_0.statExecutedInstType::SimdSha1Hash            0      0.00%     75.35% # Class of executed instruction. (Count)
system.cpu1.exec_context.thread_0.statExecutedInstType::SimdSha1Hash2            0      0.00%     75.35% # Class of executed instruction. (Count)
system.cpu1.exec_context.thread_0.statExecutedInstType::SimdSha256Hash            0      0.00%     75.35% # Class of executed instruction. (Count)
system.cpu1.exec_context.thread_0.statExecutedInstType::SimdSha256Hash2            0      0.00%     75.35% # Class of executed instruction. (Count)
system.cpu1.exec_context.thread_0.statExecutedInstType::SimdShaSigma2            0      0.00%     75.35% # Class of executed instruction. (Count)
system.cpu1.exec_context.thread_0.statExecutedInstType::SimdShaSigma3            0      0.00%     75.35% # Class of executed instruction. (Count)
system.cpu1.exec_context.thread_0.statExecutedInstType::SimdPredAlu            0      0.00%     75.35% # Class of executed instruction. (Count)
system.cpu1.exec_context.thread_0.statExecutedInstType::MemRead       138533     21.50%     96.85% # Class of executed instruction. (Count)
system.cpu1.exec_context.thread_0.statExecutedInstType::MemWrite        14259      2.21%     99.06% # Class of executed instruction. (Count)
system.cpu1.exec_context.thread_0.statExecutedInstType::FloatMemRead         5559      0.86%     99.92% # Class of executed instruction. (Count)
system.cpu1.exec_context.thread_0.statExecutedInstType::FloatMemWrite          497      0.08%    100.00% # Class of executed instruction. (Count)
system.cpu1.exec_context.thread_0.statExecutedInstType::IprAccess            0      0.00%    100.00% # Class of executed instruction. (Count)
system.cpu1.exec_context.thread_0.statExecutedInstType::InstPrefetch            0      0.00%    100.00% # Class of executed instruction. (Count)
system.cpu1.exec_context.thread_0.statExecutedInstType::total       644299                       # Class of executed instruction. (Count)
system.cpu1.interrupts.clk_domain.clock          8000                       # Clock period in ticks (Tick)
system.cpu1.mmu.dtb.rdAccesses                 144092                       # TLB accesses on read requests (Count)
system.cpu1.mmu.dtb.wrAccesses                  14756                       # TLB accesses on write requests (Count)
system.cpu1.mmu.dtb.rdMisses                      159                       # TLB misses on read requests (Count)
system.cpu1.mmu.dtb.wrMisses                        2                       # TLB misses on write requests (Count)
system.cpu1.mmu.dtb.walker.power_state.pwrStateResidencyTicks::UNDEFINED 1218340135000                       # Cumulative time (in ticks) in various power states (Tick)
system.cpu1.mmu.itb.rdAccesses                      0                       # TLB accesses on read requests (Count)
system.cpu1.mmu.itb.wrAccesses                 456988                       # TLB accesses on write requests (Count)
system.cpu1.mmu.itb.rdMisses                        0                       # TLB misses on read requests (Count)
system.cpu1.mmu.itb.wrMisses                      130                       # TLB misses on write requests (Count)
system.cpu1.mmu.itb.walker.power_state.pwrStateResidencyTicks::UNDEFINED 1218340135000                       # Cumulative time (in ticks) in various power states (Tick)
system.cpu1.power_state.numTransitions              3                       # Number of power state transitions (Count)
system.cpu1.power_state.ticksClkGated::samples            2                       # Distribution of time spent in the clock gated state (Tick)
system.cpu1.power_state.ticksClkGated::mean  87456793750                       # Distribution of time spent in the clock gated state (Tick)
system.cpu1.power_state.ticksClkGated::stdev 120828834517.229263                       # Distribution of time spent in the clock gated state (Tick)
system.cpu1.power_state.ticksClkGated::1000-5e+10            1     50.00%     50.00% # Distribution of time spent in the clock gated state (Tick)
system.cpu1.power_state.ticksClkGated::1.5e+11-2e+11            1     50.00%    100.00% # Distribution of time spent in the clock gated state (Tick)
system.cpu1.power_state.ticksClkGated::min_value   2017905500                       # Distribution of time spent in the clock gated state (Tick)
system.cpu1.power_state.ticksClkGated::max_value 172895682000                       # Distribution of time spent in the clock gated state (Tick)
system.cpu1.power_state.ticksClkGated::total            2                       # Distribution of time spent in the clock gated state (Tick)
system.cpu1.power_state.pwrStateResidencyTicks::ON 1043426547500                       # Cumulative time (in ticks) in various power states (Tick)
system.cpu1.power_state.pwrStateResidencyTicks::CLK_GATED 174913587500                       # Cumulative time (in ticks) in various power states (Tick)
system.cpu1.thread_0.numInsts                       0                       # Number of Instructions committed (Count)
system.cpu1.thread_0.numOps                         0                       # Number of Ops committed (Count)
system.cpu1.thread_0.numMemRefs                     0                       # Number of Memory References (Count)
system.cpu2.numCycles                      2423351059                       # Number of cpu cycles simulated (Cycle)
system.cpu2.numWorkItemsStarted                     0                       # Number of work items this cpu started (Count)
system.cpu2.numWorkItemsCompleted                   0                       # Number of work items this cpu completed (Count)
system.cpu2.clk_domain.clock                      500                       # Clock period in ticks (Tick)
system.cpu2.clk_domain.voltage_domain.voltage            1                       # Voltage in Volts (Volt)
system.cpu2.exec_context.thread_0.numInsts     44799399                       # Number of instructions committed (Count)
system.cpu2.exec_context.thread_0.numOps     87441964                       # Number of ops (including micro ops) committed (Count)
system.cpu2.exec_context.thread_0.numIntAluAccesses     74086959                       # Number of integer alu accesses (Count)
system.cpu2.exec_context.thread_0.numFpAluAccesses     20370782                       # Number of float alu accesses (Count)
system.cpu2.exec_context.thread_0.numVecAluAccesses            0                       # Number of vector alu accesses (Count)
system.cpu2.exec_context.thread_0.numCallsReturns       286652                       # Number of times a function call or return occured (Count)
system.cpu2.exec_context.thread_0.numCondCtrlInsts      9486335                       # Number of instructions that are conditional controls (Count)
system.cpu2.exec_context.thread_0.numIntInsts     74086959                       # Number of integer instructions (Count)
system.cpu2.exec_context.thread_0.numFpInsts     20370782                       # Number of float instructions (Count)
system.cpu2.exec_context.thread_0.numVecInsts            0                       # Number of vector instructions (Count)
system.cpu2.exec_context.thread_0.numIntRegReads     78669791                       # Number of times the integer registers were read (Count)
system.cpu2.exec_context.thread_0.numIntRegWrites     47727116                       # Number of times the integer registers were written (Count)
system.cpu2.exec_context.thread_0.numFpRegReads     25218702                       # Number of times the floating registers were read (Count)
system.cpu2.exec_context.thread_0.numFpRegWrites     17420851                       # Number of times the floating registers were written (Count)
system.cpu2.exec_context.thread_0.numVecRegReads            0                       # Number of times the vector registers were read (Count)
system.cpu2.exec_context.thread_0.numVecRegWrites            0                       # Number of times the vector registers were written (Count)
system.cpu2.exec_context.thread_0.numVecPredRegReads            0                       # Number of times the predicate registers were read (Count)
system.cpu2.exec_context.thread_0.numVecPredRegWrites            0                       # Number of times the predicate registers were written (Count)
system.cpu2.exec_context.thread_0.numCCRegReads     75115196                       # Number of times the CC registers were read (Count)
system.cpu2.exec_context.thread_0.numCCRegWrites     26272112                       # Number of times the CC registers were written (Count)
system.cpu2.exec_context.thread_0.numMiscRegReads     39448231                       # Number of times the Misc registers were read (Count)
system.cpu2.exec_context.thread_0.numMiscRegWrites          329                       # Number of times the Misc registers were written (Count)
system.cpu2.exec_context.thread_0.numMemRefs     12889160                       # Number of memory refs (Count)
system.cpu2.exec_context.thread_0.numLoadInsts     11832653                       # Number of load instructions (Count)
system.cpu2.exec_context.thread_0.numStoreInsts      1056507                       # Number of store instructions (Count)
system.cpu2.exec_context.thread_0.numIdleCycles 2233064882.233252                       # Number of idle cycles (Cycle)
system.cpu2.exec_context.thread_0.numBusyCycles 190286176.766748                       # Number of busy cycles (Cycle)
system.cpu2.exec_context.thread_0.notIdleFraction     0.078522                       # Percentage of non-idle cycles (Ratio)
system.cpu2.exec_context.thread_0.idleFraction     0.921478                       # Percentage of idle cycles (Ratio)
system.cpu2.exec_context.thread_0.numBranches     11180936                       # Number of branches fetched (Count)
system.cpu2.exec_context.thread_0.statExecutedInstType::No_OpClass       498243      0.57%      0.57% # Class of executed instruction. (Count)
system.cpu2.exec_context.thread_0.statExecutedInstType::IntAlu     59853191     68.39%     68.96% # Class of executed instruction. (Count)
system.cpu2.exec_context.thread_0.statExecutedInstType::IntMult         8223      0.01%     68.97% # Class of executed instruction. (Count)
system.cpu2.exec_context.thread_0.statExecutedInstType::IntDiv        14359      0.02%     68.99% # Class of executed instruction. (Count)
system.cpu2.exec_context.thread_0.statExecutedInstType::FloatAdd      2494664      2.85%     71.84% # Class of executed instruction. (Count)
system.cpu2.exec_context.thread_0.statExecutedInstType::FloatCmp            3      0.00%     71.84% # Class of executed instruction. (Count)
system.cpu2.exec_context.thread_0.statExecutedInstType::FloatCvt          530      0.00%     71.84% # Class of executed instruction. (Count)
system.cpu2.exec_context.thread_0.statExecutedInstType::FloatMult            1      0.00%     71.84% # Class of executed instruction. (Count)
system.cpu2.exec_context.thread_0.statExecutedInstType::FloatMultAcc            0      0.00%     71.84% # Class of executed instruction. (Count)
system.cpu2.exec_context.thread_0.statExecutedInstType::FloatDiv            1      0.00%     71.84% # Class of executed instruction. (Count)
system.cpu2.exec_context.thread_0.statExecutedInstType::FloatMisc            0      0.00%     71.84% # Class of executed instruction. (Count)
system.cpu2.exec_context.thread_0.statExecutedInstType::FloatSqrt            0      0.00%     71.84% # Class of executed instruction. (Count)
system.cpu2.exec_context.thread_0.statExecutedInstType::SimdAdd          410      0.00%     71.84% # Class of executed instruction. (Count)
system.cpu2.exec_context.thread_0.statExecutedInstType::SimdAddAcc            0      0.00%     71.84% # Class of executed instruction. (Count)
system.cpu2.exec_context.thread_0.statExecutedInstType::SimdAlu      3009864      3.44%     75.28% # Class of executed instruction. (Count)
system.cpu2.exec_context.thread_0.statExecutedInstType::SimdCmp           12      0.00%     75.28% # Class of executed instruction. (Count)
system.cpu2.exec_context.thread_0.statExecutedInstType::SimdCvt          558      0.00%     75.28% # Class of executed instruction. (Count)
system.cpu2.exec_context.thread_0.statExecutedInstType::SimdMisc      1504878      1.72%     77.00% # Class of executed instruction. (Count)
system.cpu2.exec_context.thread_0.statExecutedInstType::SimdMult            0      0.00%     77.00% # Class of executed instruction. (Count)
system.cpu2.exec_context.thread_0.statExecutedInstType::SimdMultAcc            0      0.00%     77.00% # Class of executed instruction. (Count)
system.cpu2.exec_context.thread_0.statExecutedInstType::SimdShift          283      0.00%     77.00% # Class of executed instruction. (Count)
system.cpu2.exec_context.thread_0.statExecutedInstType::SimdShiftAcc            0      0.00%     77.00% # Class of executed instruction. (Count)
system.cpu2.exec_context.thread_0.statExecutedInstType::SimdDiv            0      0.00%     77.00% # Class of executed instruction. (Count)
system.cpu2.exec_context.thread_0.statExecutedInstType::SimdSqrt            0      0.00%     77.00% # Class of executed instruction. (Count)
system.cpu2.exec_context.thread_0.statExecutedInstType::SimdFloatAdd      1498080      1.71%     78.71% # Class of executed instruction. (Count)
system.cpu2.exec_context.thread_0.statExecutedInstType::SimdFloatAlu            0      0.00%     78.71% # Class of executed instruction. (Count)
system.cpu2.exec_context.thread_0.statExecutedInstType::SimdFloatCmp            0      0.00%     78.71% # Class of executed instruction. (Count)
system.cpu2.exec_context.thread_0.statExecutedInstType::SimdFloatCvt      4241860      4.85%     83.56% # Class of executed instruction. (Count)
system.cpu2.exec_context.thread_0.statExecutedInstType::SimdFloatDiv          873      0.00%     83.56% # Class of executed instruction. (Count)
system.cpu2.exec_context.thread_0.statExecutedInstType::SimdFloatMisc            0      0.00%     83.56% # Class of executed instruction. (Count)
system.cpu2.exec_context.thread_0.statExecutedInstType::SimdFloatMult      1498733      1.71%     85.27% # Class of executed instruction. (Count)
system.cpu2.exec_context.thread_0.statExecutedInstType::SimdFloatMultAcc            0      0.00%     85.27% # Class of executed instruction. (Count)
system.cpu2.exec_context.thread_0.statExecutedInstType::SimdFloatSqrt            0      0.00%     85.27% # Class of executed instruction. (Count)
system.cpu2.exec_context.thread_0.statExecutedInstType::SimdReduceAdd            0      0.00%     85.27% # Class of executed instruction. (Count)
system.cpu2.exec_context.thread_0.statExecutedInstType::SimdReduceAlu            0      0.00%     85.27% # Class of executed instruction. (Count)
system.cpu2.exec_context.thread_0.statExecutedInstType::SimdReduceCmp            0      0.00%     85.27% # Class of executed instruction. (Count)
system.cpu2.exec_context.thread_0.statExecutedInstType::SimdFloatReduceAdd            0      0.00%     85.27% # Class of executed instruction. (Count)
system.cpu2.exec_context.thread_0.statExecutedInstType::SimdFloatReduceCmp            0      0.00%     85.27% # Class of executed instruction. (Count)
system.cpu2.exec_context.thread_0.statExecutedInstType::SimdAes            0      0.00%     85.27% # Class of executed instruction. (Count)
system.cpu2.exec_context.thread_0.statExecutedInstType::SimdAesMix            0      0.00%     85.27% # Class of executed instruction. (Count)
system.cpu2.exec_context.thread_0.statExecutedInstType::SimdSha1Hash            0      0.00%     85.27% # Class of executed instruction. (Count)
system.cpu2.exec_context.thread_0.statExecutedInstType::SimdSha1Hash2            0      0.00%     85.27% # Class of executed instruction. (Count)
system.cpu2.exec_context.thread_0.statExecutedInstType::SimdSha256Hash            0      0.00%     85.27% # Class of executed instruction. (Count)
system.cpu2.exec_context.thread_0.statExecutedInstType::SimdSha256Hash2            0      0.00%     85.27% # Class of executed instruction. (Count)
system.cpu2.exec_context.thread_0.statExecutedInstType::SimdShaSigma2            0      0.00%     85.27% # Class of executed instruction. (Count)
system.cpu2.exec_context.thread_0.statExecutedInstType::SimdShaSigma3            0      0.00%     85.27% # Class of executed instruction. (Count)
system.cpu2.exec_context.thread_0.statExecutedInstType::SimdPredAlu            0      0.00%     85.27% # Class of executed instruction. (Count)
system.cpu2.exec_context.thread_0.statExecutedInstType::MemRead      5922480      6.77%     92.04% # Class of executed instruction. (Count)
system.cpu2.exec_context.thread_0.statExecutedInstType::MemWrite       849931      0.97%     93.01% # Class of executed instruction. (Count)
system.cpu2.exec_context.thread_0.statExecutedInstType::FloatMemRead      5910173      6.75%     99.76% # Class of executed instruction. (Count)
system.cpu2.exec_context.thread_0.statExecutedInstType::FloatMemWrite       206576      0.24%    100.00% # Class of executed instruction. (Count)
system.cpu2.exec_context.thread_0.statExecutedInstType::IprAccess            0      0.00%    100.00% # Class of executed instruction. (Count)
system.cpu2.exec_context.thread_0.statExecutedInstType::InstPrefetch            0      0.00%    100.00% # Class of executed instruction. (Count)
system.cpu2.exec_context.thread_0.statExecutedInstType::total     87513926                       # Class of executed instruction. (Count)
system.cpu2.interrupts.clk_domain.clock          8000                       # Clock period in ticks (Tick)
system.cpu2.mmu.dtb.rdAccesses               11832683                       # TLB accesses on read requests (Count)
system.cpu2.mmu.dtb.wrAccesses                1056770                       # TLB accesses on write requests (Count)
system.cpu2.mmu.dtb.rdMisses                     1385                       # TLB misses on read requests (Count)
system.cpu2.mmu.dtb.wrMisses                      573                       # TLB misses on write requests (Count)
system.cpu2.mmu.dtb.walker.power_state.pwrStateResidencyTicks::UNDEFINED 1218340135000                       # Cumulative time (in ticks) in various power states (Tick)
system.cpu2.mmu.itb.rdAccesses                      0                       # TLB accesses on read requests (Count)
system.cpu2.mmu.itb.wrAccesses               63405189                       # TLB accesses on write requests (Count)
system.cpu2.mmu.itb.rdMisses                        0                       # TLB misses on read requests (Count)
system.cpu2.mmu.itb.wrMisses                     9811                       # TLB misses on write requests (Count)
system.cpu2.mmu.itb.walker.power_state.pwrStateResidencyTicks::UNDEFINED 1218340135000                       # Cumulative time (in ticks) in various power states (Tick)
system.cpu2.power_state.numTransitions           1875                       # Number of power state transitions (Count)
system.cpu2.power_state.ticksClkGated::samples          938                       # Distribution of time spent in the clock gated state (Tick)
system.cpu2.power_state.ticksClkGated::mean 83902360.874200                       # Distribution of time spent in the clock gated state (Tick)
system.cpu2.power_state.ticksClkGated::stdev 256579396.667488                       # Distribution of time spent in the clock gated state (Tick)
system.cpu2.power_state.ticksClkGated::1000-5e+10          938    100.00%    100.00% # Distribution of time spent in the clock gated state (Tick)
system.cpu2.power_state.ticksClkGated::min_value       759000                       # Distribution of time spent in the clock gated state (Tick)
system.cpu2.power_state.ticksClkGated::max_value   6664605500                       # Distribution of time spent in the clock gated state (Tick)
system.cpu2.power_state.ticksClkGated::total          938                       # Distribution of time spent in the clock gated state (Tick)
system.cpu2.power_state.pwrStateResidencyTicks::ON 1139639720500                       # Cumulative time (in ticks) in various power states (Tick)
system.cpu2.power_state.pwrStateResidencyTicks::CLK_GATED  78700414500                       # Cumulative time (in ticks) in various power states (Tick)
system.cpu2.thread_0.numInsts                       0                       # Number of Instructions committed (Count)
system.cpu2.thread_0.numOps                         0                       # Number of Ops committed (Count)
system.cpu2.thread_0.numMemRefs                     0                       # Number of Memory References (Count)
system.cpu3.allLatencyDist::bucket_size         10000                       # delay distribution for all (Unspecified)
system.cpu3.allLatencyDist::min_bucket              0                       # delay distribution for all (Unspecified)
system.cpu3.allLatencyDist::max_bucket        1600000                       # delay distribution for all (Unspecified)
system.cpu3.allLatencyDist::samples           6435581                       # delay distribution for all (Unspecified)
system.cpu3.allLatencyDist::mean         377026.181630                       # delay distribution for all (Unspecified)
system.cpu3.allLatencyDist::stdev        221359.693532                       # delay distribution for all (Unspecified)
system.cpu3.allLatencyDist::underflows              0      0.00%      0.00% # delay distribution for all (Unspecified)
system.cpu3.allLatencyDist               |           0      0.00%      0.00% |           0      0.00%      0.00% |           0      0.00%      0.00% |           0      0.00%      0.00% |           0      0.00%      0.00% |           0      0.00%      0.00% |           0      0.00%      0.00% |           0      0.00%      0.00% |           0      0.00%      0.00% |           0      0.00%      0.00% |      756368     11.75%     11.75% |       91634      1.42%     13.18% |      224517      3.49%     16.67% |      211283      3.28%     19.95% |      138897      2.16%     22.11% |       93749      1.46%     23.56% |       79399      1.23%     24.80% |      128837      2.00%     26.80% |       98300      1.53%     28.33% |      106369      1.65%     29.98% |      131533      2.04%     32.02% |       97687      1.52%     33.54% |       83835      1.30%     34.84% |       60127      0.93%     35.78% |      110402      1.72%     37.49% |       76599      1.19%     38.68% |       58527      0.91%     39.59% |       61452      0.95%     40.55% |       60466      0.94%     41.49% |       59364      0.92%     42.41% |       55086      0.86%     43.27% |       60495      0.94%     44.21% |      102480      1.59%     45.80% |       75355      1.17%     46.97% |       80355      1.25%     48.22% |       84372      1.31%     49.53% |       83272      1.29%     50.82% |       89877      1.40%     52.22% |       83284      1.29%     53.51% |       85263      1.32%     54.84% |       98507      1.53%     56.37% |      100503      1.56%     57.93% |      103084      1.60%     59.53% |       94339      1.47%     61.00% |       93064      1.45%     62.44% |      102251      1.59%     64.03% |       85375      1.33%     65.36% |       90798      1.41%     66.77% |      101308      1.57%     68.35% |      112124      1.74%     70.09% |       90072      1.40%     71.49% |       83438      1.30%     72.78% |       85903      1.33%     74.12% |       93234      1.45%     75.57% |       81390      1.26%     76.83% |       78984      1.23%     78.06% |       95782      1.49%     79.55% |       80538      1.25%     80.80% |       69105      1.07%     81.87% |       66385      1.03%     82.90% |       65446      1.02%     83.92% |       69021      1.07%     84.99% |       61786      0.96%     85.95% |       63736      0.99%     86.94% |       65624      1.02%     87.96% |       54753      0.85%     88.81% |       48551      0.75%     89.57% |       44813      0.70%     90.27% |       43191      0.67%     90.94% |       42328      0.66%     91.59% |       39245      0.61%     92.20% |       38883      0.60%     92.81% |       34934      0.54%     93.35% |       31665      0.49%     93.84% |       28745      0.45%     94.29% |       26710      0.42%     94.70% |       25380      0.39%     95.10% |       23576      0.37%     95.47% |       22794      0.35%     95.82% |       21124      0.33%     96.15% |       19365      0.30%     96.45% |       18130      0.28%     96.73% |       16810      0.26%     96.99% |       16378      0.25%     97.25% |       15550      0.24%     97.49% |       14875      0.23%     97.72% |       14249      0.22%     97.94% |       12653      0.20%     98.14% |       11404      0.18%     98.31% |       10588      0.16%     98.48% |        9959      0.15%     98.63% |        9139      0.14%     98.78% |        8374      0.13%     98.91% |        7762      0.12%     99.03% |        7058      0.11%     99.14% |        6582      0.10%     99.24% |        5962      0.09%     99.33% |        5170      0.08%     99.41% |        4920      0.08%     99.49% |        4174      0.06%     99.55% |        3755      0.06%     99.61% |        3285      0.05%     99.66% |        2870      0.04%     99.71% |        2458      0.04%     99.74% |        2016      0.03%     99.78% |        1703      0.03%     99.80% |        1396      0.02%     99.82% |        1287      0.02%     99.84% |        1065      0.02%     99.86% |         902      0.01%     99.87% |         802      0.01%     99.89% |         683      0.01%     99.90% |         630      0.01%     99.91% |         564      0.01%     99.92% |         527      0.01%     99.92% |         419      0.01%     99.93% |         373      0.01%     99.94% |         323      0.01%     99.94% |         233      0.00%     99.95% |         229      0.00%     99.95% |         199      0.00%     99.95% |         185      0.00%     99.95% |         178      0.00%     99.96% |         122      0.00%     99.96% |         136      0.00%     99.96% |         129      0.00%     99.96% |         124      0.00%     99.97% |         111      0.00%     99.97% |         100      0.00%     99.97% |          78      0.00%     99.97% |          72      0.00%     99.97% |          73      0.00%     99.97% |          67      0.00%     99.97% |          73      0.00%     99.97% |          70      0.00%     99.98% |          59      0.00%     99.98% |          52      0.00%     99.98% |          51      0.00%     99.98% |          59      0.00%     99.98% |          39      0.00%     99.98% |          39      0.00%     99.98% |          50      0.00%     99.98% |          36      0.00%     99.98% |          37      0.00%     99.98% |          31      0.00%     99.98% |          32      0.00%     99.98% |          32      0.00%     99.98% |          28      0.00%     99.98% |          28      0.00%     99.98% |          29      0.00%     99.98% |          27      0.00%     99.99% |          20      0.00%     99.99% |          27      0.00%     99.99% |          42      0.00%     99.99% |          40      0.00%     99.99% |          41      0.00%     99.99% |          27      0.00%     99.99% |          29      0.00%     99.99% |          27      0.00%     99.99% |          24      0.00%     99.99% |           5      0.00%     99.99% # delay distribution for all (Unspecified)
system.cpu3.allLatencyDist::overflows             658      0.01%    100.00% # delay distribution for all (Unspecified)
system.cpu3.allLatencyDist::min_value          105000                       # delay distribution for all (Unspecified)
system.cpu3.allLatencyDist::max_value        10388000                       # delay distribution for all (Unspecified)
system.cpu3.allLatencyDist::total             6435581                       # delay distribution for all (Unspecified)
system.cpu3.loadLatencyDist::bucket_size        10000                       # delay distribution for loads (Unspecified)
system.cpu3.loadLatencyDist::min_bucket             0                       # delay distribution for loads (Unspecified)
system.cpu3.loadLatencyDist::max_bucket       1600000                       # delay distribution for loads (Unspecified)
system.cpu3.loadLatencyDist::samples          5215872                       # delay distribution for loads (Unspecified)
system.cpu3.loadLatencyDist::mean        347545.284470                       # delay distribution for loads (Unspecified)
system.cpu3.loadLatencyDist::stdev       226803.129292                       # delay distribution for loads (Unspecified)
system.cpu3.loadLatencyDist::underflows             0      0.00%      0.00% # delay distribution for loads (Unspecified)
system.cpu3.loadLatencyDist              |           0      0.00%      0.00% |           0      0.00%      0.00% |           0      0.00%      0.00% |           0      0.00%      0.00% |           0      0.00%      0.00% |           0      0.00%      0.00% |           0      0.00%      0.00% |           0      0.00%      0.00% |           0      0.00%      0.00% |           0      0.00%      0.00% |      756368     14.50%     14.50% |       91634      1.76%     16.26% |      224517      4.30%     20.56% |      211283      4.05%     24.61% |      138897      2.66%     27.28% |       93749      1.80%     29.07% |       79399      1.52%     30.60% |      128837      2.47%     33.07% |       98300      1.88%     34.95% |      106369      2.04%     36.99% |      131533      2.52%     39.51% |       97687      1.87%     41.38% |       83835      1.61%     42.99% |       60127      1.15%     44.14% |       85375      1.64%     45.78% |       70128      1.34%     47.13% |       52229      1.00%     48.13% |       57434      1.10%     49.23% |       55043      1.06%     50.28% |       51523      0.99%     51.27% |       48668      0.93%     52.20% |       52338      1.00%     53.21% |       60626      1.16%     54.37% |       52126      1.00%     55.37% |       59182      1.13%     56.50% |       60487      1.16%     57.66% |       56727      1.09%     58.75% |       59771      1.15%     59.90% |       55042      1.06%     60.95% |       55744      1.07%     62.02% |       63664      1.22%     63.24% |       68065      1.30%     64.55% |       71021      1.36%     65.91% |       61190      1.17%     67.08% |       59675      1.14%     68.23% |       62038      1.19%     69.42% |       52646      1.01%     70.42% |       57032      1.09%     71.52% |       62044      1.19%     72.71% |       77346      1.48%     74.19% |       56720      1.09%     75.28% |       51794      0.99%     76.27% |       52984      1.02%     77.29% |       54700      1.05%     78.34% |       51080      0.98%     79.32% |       49965      0.96%     80.27% |       63953      1.23%     81.50% |       53043      1.02%     82.52% |       45170      0.87%     83.38% |       43285      0.83%     84.21% |       42288      0.81%     85.02% |       44174      0.85%     85.87% |       41903      0.80%     86.67% |       45585      0.87%     87.55% |       47203      0.90%     88.45% |       38879      0.75%     89.20% |       34756      0.67%     89.86% |       31660      0.61%     90.47% |       30913      0.59%     91.06% |       30503      0.58%     91.65% |       29351      0.56%     92.21% |       29499      0.57%     92.78% |       26254      0.50%     93.28% |       23793      0.46%     93.74% |       21719      0.42%     94.15% |       20297      0.39%     94.54% |       19490      0.37%     94.92% |       18235      0.35%     95.26% |       17921      0.34%     95.61% |       16509      0.32%     95.92% |       15367      0.29%     96.22% |       14432      0.28%     96.50% |       13561      0.26%     96.76% |       13331      0.26%     97.01% |       12794      0.25%     97.26% |       12389      0.24%     97.49% |       12021      0.23%     97.73% |       10681      0.20%     97.93% |        9810      0.19%     98.12% |        9130      0.18%     98.29% |        8697      0.17%     98.46% |        8036      0.15%     98.61% |        7400      0.14%     98.76% |        6952      0.13%     98.89% |        6357      0.12%     99.01% |        5955      0.11%     99.13% |        5435      0.10%     99.23% |        4761      0.09%     99.32% |        4556      0.09%     99.41% |        3878      0.07%     99.48% |        3488      0.07%     99.55% |        3089      0.06%     99.61% |        2688      0.05%     99.66% |        2303      0.04%     99.70% |        1897      0.04%     99.74% |        1590      0.03%     99.77% |        1311      0.03%     99.80% |        1209      0.02%     99.82% |         978      0.02%     99.84% |         856      0.02%     99.85% |         738      0.01%     99.87% |         635      0.01%     99.88% |         598      0.01%     99.89% |         520      0.01%     99.90% |         490      0.01%     99.91% |         390      0.01%     99.92% |         346      0.01%     99.93% |         309      0.01%     99.93% |         218      0.00%     99.94% |         215      0.00%     99.94% |         181      0.00%     99.94% |         169      0.00%     99.95% |         160      0.00%     99.95% |         112      0.00%     99.95% |         129      0.00%     99.95% |         123      0.00%     99.96% |         116      0.00%     99.96% |         104      0.00%     99.96% |          94      0.00%     99.96% |          75      0.00%     99.96% |          65      0.00%     99.97% |          69      0.00%     99.97% |          63      0.00%     99.97% |          72      0.00%     99.97% |          67      0.00%     99.97% |          59      0.00%     99.97% |          51      0.00%     99.97% |          49      0.00%     99.97% |          55      0.00%     99.97% |          38      0.00%     99.98% |          38      0.00%     99.98% |          46      0.00%     99.98% |          36      0.00%     99.98% |          36      0.00%     99.98% |          30      0.00%     99.98% |          31      0.00%     99.98% |          30      0.00%     99.98% |          28      0.00%     99.98% |          27      0.00%     99.98% |          28      0.00%     99.98% |          26      0.00%     99.98% |          20      0.00%     99.98% |          27      0.00%     99.98% |          42      0.00%     99.98% |          40      0.00%     99.98% |          40      0.00%     99.99% |          27      0.00%     99.99% |          29      0.00%     99.99% |          27      0.00%     99.99% |          24      0.00%     99.99% |           5      0.00%     99.99% # delay distribution for loads (Unspecified)
system.cpu3.loadLatencyDist::overflows            648      0.01%    100.00% # delay distribution for loads (Unspecified)
system.cpu3.loadLatencyDist::min_value         105000                       # delay distribution for loads (Unspecified)
system.cpu3.loadLatencyDist::max_value       10388000                       # delay distribution for loads (Unspecified)
system.cpu3.loadLatencyDist::total            5215872                       # delay distribution for loads (Unspecified)
system.cpu3.storeLatencyDist::bucket_size        10000                       # delay distribution for stores (Unspecified)
system.cpu3.storeLatencyDist::min_bucket            0                       # delay distribution for stores (Unspecified)
system.cpu3.storeLatencyDist::max_bucket      1600000                       # delay distribution for stores (Unspecified)
system.cpu3.storeLatencyDist::samples         1219709                       # delay distribution for stores (Unspecified)
system.cpu3.storeLatencyDist::mean       503096.077015                       # delay distribution for stores (Unspecified)
system.cpu3.storeLatencyDist::stdev      137686.491622                       # delay distribution for stores (Unspecified)
system.cpu3.storeLatencyDist::underflows            0      0.00%      0.00% # delay distribution for stores (Unspecified)
system.cpu3.storeLatencyDist             |           0      0.00%      0.00% |           0      0.00%      0.00% |           0      0.00%      0.00% |           0      0.00%      0.00% |           0      0.00%      0.00% |           0      0.00%      0.00% |           0      0.00%      0.00% |           0      0.00%      0.00% |           0      0.00%      0.00% |           0      0.00%      0.00% |           0      0.00%      0.00% |           0      0.00%      0.00% |           0      0.00%      0.00% |           0      0.00%      0.00% |           0      0.00%      0.00% |           0      0.00%      0.00% |           0      0.00%      0.00% |           0      0.00%      0.00% |           0      0.00%      0.00% |           0      0.00%      0.00% |           0      0.00%      0.00% |           0      0.00%      0.00% |           0      0.00%      0.00% |           0      0.00%      0.00% |       25027      2.05%      2.05% |        6471      0.53%      2.58% |        6298      0.52%      3.10% |        4018      0.33%      3.43% |        5423      0.44%      3.87% |        7841      0.64%      4.52% |        6418      0.53%      5.04% |        8157      0.67%      5.71% |       41854      3.43%      9.14% |       23229      1.90%     11.05% |       21173      1.74%     12.78% |       23885      1.96%     14.74% |       26545      2.18%     16.92% |       30106      2.47%     19.39% |       28242      2.32%     21.70% |       29519      2.42%     24.12% |       34843      2.86%     26.98% |       32438      2.66%     29.64% |       32063      2.63%     32.27% |       33149      2.72%     34.98% |       33389      2.74%     37.72% |       40213      3.30%     41.02% |       32729      2.68%     43.70% |       33766      2.77%     46.47% |       39264      3.22%     49.69% |       34778      2.85%     52.54% |       33352      2.73%     55.27% |       31644      2.59%     57.87% |       32919      2.70%     60.57% |       38534      3.16%     63.73% |       30310      2.49%     66.21% |       29019      2.38%     68.59% |       31829      2.61%     71.20% |       27495      2.25%     73.46% |       23935      1.96%     75.42% |       23100      1.89%     77.31% |       23158      1.90%     79.21% |       24847      2.04%     81.25% |       19883      1.63%     82.88% |       18151      1.49%     84.37% |       18421      1.51%     85.88% |       15874      1.30%     87.18% |       13795      1.13%     88.31% |       13153      1.08%     89.39% |       12278      1.01%     90.39% |       11825      0.97%     91.36% |        9894      0.81%     92.17% |        9384      0.77%     92.94% |        8680      0.71%     93.65% |        7872      0.65%     94.30% |        7026      0.58%     94.88% |        6413      0.53%     95.40% |        5890      0.48%     95.89% |        5341      0.44%     96.32% |        4873      0.40%     96.72% |        4615      0.38%     97.10% |        3998      0.33%     97.43% |        3698      0.30%     97.73% |        3249      0.27%     98.00% |        3047      0.25%     98.25% |        2756      0.23%     98.47% |        2486      0.20%     98.68% |        2228      0.18%     98.86% |        1972      0.16%     99.02% |        1594      0.13%     99.15% |        1458      0.12%     99.27% |        1262      0.10%     99.38% |        1103      0.09%     99.47% |         974      0.08%     99.55% |         810      0.07%     99.61% |         701      0.06%     99.67% |         627      0.05%     99.72% |         527      0.04%     99.76% |         409      0.03%     99.80% |         364      0.03%     99.83% |         296      0.02%     99.85% |         267      0.02%     99.87% |         196      0.02%     99.89% |         182      0.01%     99.91% |         155      0.01%     99.92% |         119      0.01%     99.93% |         113      0.01%     99.94% |          85      0.01%     99.94% |          78      0.01%     99.95% |          87      0.01%     99.96% |          46      0.00%     99.96% |          64      0.01%     99.97% |          48      0.00%     99.97% |          32      0.00%     99.97% |          44      0.00%     99.98% |          37      0.00%     99.98% |          29      0.00%     99.98% |          27      0.00%     99.98% |          14      0.00%     99.99% |          15      0.00%     99.99% |          14      0.00%     99.99% |          18      0.00%     99.99% |          16      0.00%     99.99% |          18      0.00%     99.99% |          10      0.00%     99.99% |           7      0.00%     99.99% |           6      0.00%     99.99% |           8      0.00%     99.99% |           7      0.00%    100.00% |           6      0.00%    100.00% |           3      0.00%    100.00% |           7      0.00%    100.00% |           4      0.00%    100.00% |           4      0.00%    100.00% |           1      0.00%    100.00% |           3      0.00%    100.00% |           0      0.00%    100.00% |           1      0.00%    100.00% |           2      0.00%    100.00% |           4      0.00%    100.00% |           1      0.00%    100.00% |           1      0.00%    100.00% |           4      0.00%    100.00% |           0      0.00%    100.00% |           1      0.00%    100.00% |           1      0.00%    100.00% |           1      0.00%    100.00% |           2      0.00%    100.00% |           0      0.00%    100.00% |           1      0.00%    100.00% |           1      0.00%    100.00% |           1      0.00%    100.00% |           0      0.00%    100.00% |           0      0.00%    100.00% |           0      0.00%    100.00% |           0      0.00%    100.00% |           1      0.00%    100.00% |           0      0.00%    100.00% |           0      0.00%    100.00% |           0      0.00%    100.00% |           0      0.00%    100.00% |           0      0.00%    100.00% # delay distribution for stores (Unspecified)
system.cpu3.storeLatencyDist::overflows            10      0.00%    100.00% # delay distribution for stores (Unspecified)
system.cpu3.storeLatencyDist::min_value        249000                       # delay distribution for stores (Unspecified)
system.cpu3.storeLatencyDist::max_value       2852000                       # delay distribution for stores (Unspecified)
system.cpu3.storeLatencyDist::total           1219709                       # delay distribution for stores (Unspecified)
system.cpu3.initToCoalesceLatency::bucket_size        10000                       # Ticks from vmem inst initiateAcc to coalescer issue (Unspecified)
system.cpu3.initToCoalesceLatency::min_bucket            0                       # Ticks from vmem inst initiateAcc to coalescer issue (Unspecified)
system.cpu3.initToCoalesceLatency::max_bucket      1600000                       # Ticks from vmem inst initiateAcc to coalescer issue (Unspecified)
system.cpu3.initToCoalesceLatency::samples            0                       # Ticks from vmem inst initiateAcc to coalescer issue (Unspecified)
system.cpu3.initToCoalesceLatency::mean           nan                       # Ticks from vmem inst initiateAcc to coalescer issue (Unspecified)
system.cpu3.initToCoalesceLatency::stdev          nan                       # Ticks from vmem inst initiateAcc to coalescer issue (Unspecified)
system.cpu3.initToCoalesceLatency::underflows            0                       # Ticks from vmem inst initiateAcc to coalescer issue (Unspecified)
[...]
system.cpu3.cacheBlockRoundTrip7::overflows            0                       # Coalsr-to-coalsr time for the Nth cache block in an inst (Unspecified)
system.cpu3.cacheBlockRoundTrip7::min_value            0                       # Coalsr-to-coalsr time for the Nth cache block in an inst (Unspecified)
system.cpu3.cacheBlockRoundTrip7::max_value            0                       # Coalsr-to-coalsr time for the Nth cache block in an inst (Unspecified)
system.cpu3.cacheBlockRoundTrip7::total             0                       # Coalsr-to-coalsr time for the Nth cache block in an inst (Unspecified)
system.cpu3.cacheBlockRoundTrip8::bucket_size        10000                       # Coalsr-to-coalsr time for the Nth cache block in an inst (Unspecified)
system.cpu3.cacheBlockRoundTrip8::min_bucket            0                       # Coalsr-to-coalsr time for the Nth cache block in an inst (Unspecified)
system.cpu3.cacheBlockRoundTrip8::max_bucket      1600000                       # Coalsr-to-coalsr time for the Nth cache block in an inst (Unspecified)
system.cpu3.cacheBlockRoundTrip8::samples            0                       # Coalsr-to-coalsr time for the Nth cache block in an inst (Unspecified)
system.cpu3.cacheBlockRoundTrip8::mean            nan                       # Coalsr-to-coalsr time for the Nth cache block in an inst (Unspecified)
system.cpu3.cacheBlockRoundTrip8::stdev           nan                       # Coalsr-to-coalsr time for the Nth cache block in an inst (Unspecified)
system.cpu3.cacheBlockRoundTrip8::underflows            0                       # Coalsr-to-coalsr time for the Nth cache block in an inst (Unspecified)
system.cpu3.cacheBlockRoundTrip8         |           0                       |           0                       |           0                       |           0                       |           0                       |           0                       |           0                       |           0                       |           0                       |           0                       |           0                       |           0                       |           0                       |           0                       |           0                       |           0                       |           0                       |           0                       |           0                       |           0                       |           0                       |           0                       |           0                       |           0                       |           0                       |           0                       |           0                       |           0                       |           0                       |           0                       |           0                       |           0                       |           0                       |           0                       |           0                       |           0                       |           0                       |           0                       |           0                       |           0                       |           0                       |           0                       |           0                       |           0                       |           0                       |           0                       |           0                       |           0                       |           0                       |           0                       |           0                       |           0                       |           0                       |           0                       |           0                       |           0                       |           0                       |           0                       |           0                       |           0                       |           0                       |           0                       |           0                       |           0                       |           0                       |           0                       |           0                       |           0                       |           0                       |           0                       |           0                       |           0                       |           0                       |           0                       |           0                       |           0                       |           0                       |           0                       |           0                       |           0                       |           0                       |           0                       |           0                       |           0                       |           0                       |           0                       |           0                       |           0                       |           0                       |           0                       |           0                       |           0                       |           0                       |           0                       |           0                       |           0                       |           0                       |           0                       |           0                       |           0                       |           0                       |           0                       |           0                       |           0                       |           0                       |           0                       |           0                       |           0                       |           0                       |           0                       |           0                       |           0                       |           0                       |           0                       |           0                       |           0                       |           0                       |           0                       |           0                       |           0                       |           0                       |           0                       |           0                       |           0                       |           0                       |           0                       |           0                       |           0                       |           0                       |           0                       |           0                       |           0                       |           0                       |           0                       |           0                       |           0                       |           0                       |           0                       |           0                       |           0                       |           0                       |           0                       |           0                       |           0                       |           0                       |           0                       |           0                       |           0                       |           0                       |           0                       |           0                       |           0                       |           0                       |           0                       |           0                       |           0                       |           0                       |           0                       |           0                       |           0                       |           0                       # Coalsr-to-coalsr time for the Nth cache block in an inst (Unspecified)
system.cpu3.cacheBlockRoundTrip8::overflows            0                       # Coalsr-to-coalsr time for the Nth cache block in an inst (Unspecified)
system.cpu3.cacheBlockRoundTrip8::min_value            0                       # Coalsr-to-coalsr time for the Nth cache block in an inst (Unspecified)
system.cpu3.cacheBlockRoundTrip8::max_value            0                       # Coalsr-to-coalsr time for the Nth cache block in an inst (Unspecified)
system.cpu3.cacheBlockRoundTrip8::total             0                       # Coalsr-to-coalsr time for the Nth cache block in an inst (Unspecified)
system.cpu3.cacheBlockRoundTrip9::bucket_size        10000                       # Coalsr-to-coalsr time for the Nth cache block in an inst (Unspecified)
system.cpu3.cacheBlockRoundTrip9::min_bucket            0                       # Coalsr-to-coalsr time for the Nth cache block in an inst (Unspecified)
system.cpu3.cacheBlockRoundTrip9::max_bucket      1600000                       # Coalsr-to-coalsr time for the Nth cache block in an inst (Unspecified)
system.cpu3.cacheBlockRoundTrip9::samples            0                       # Coalsr-to-coalsr time for the Nth cache block in an inst (Unspecified)
system.cpu3.cacheBlockRoundTrip9::mean            nan                       # Coalsr-to-coalsr time for the Nth cache block in an inst (Unspecified)
system.cpu3.cacheBlockRoundTrip9::stdev           nan                       # Coalsr-to-coalsr time for the Nth cache block in an inst (Unspecified)
system.cpu3.cacheBlockRoundTrip9::underflows            0                       # Coalsr-to-coalsr time for the Nth cache block in an inst (Unspecified)
system.cpu3.cacheBlockRoundTrip9         |           0                       |           0                       |           0                       |           0                       |           0                       |           0                       |           0                       |           0                       |           0                       |           0                       |           0                       |           0                       |           0                       |           0                       |           0                       |           0                       |           0                       |           0                       |           0                       |           0                       |           0                       |           0                       |           0                       |           0                       |           0                       |           0                       |           0                       |           0                       |           0                       |           0                       |           0                       |           0                       |           0                       |           0                       |           0                       |           0                       |           0                       |           0                       |           0                       |           0                       |           0                       |           0                       |           0                       |           0                       |           0                       |           0                       |           0                       |           0                       |           0                       |           0                       |           0                       |           0                       |           0                       |           0                       |           0                       |           0                       |           0                       |           0                       |           0                       |           0                       |           0                       |           0                       |           0                       |           0                       |           0                       |           0                       |           0                       |           0                       |           0                       |           0                       |           0                       |           0                       |           0                       |           0                       |           0                       |           0                       |           0                       |           0                       |           0                       |           0                       |           0                       |           0                       |           0                       |           0                       |           0                       |           0                       |           0                       |           0                       |           0                       |           0                       |           0                       |           0                       |           0                       |           0                       |           0                       |           0                       |           0                       |           0                       |           0                       |           0                       |           0                       |           0                       |           0                       |           0                       |           0                       |           0                       |           0                       |           0                       |           0                       |           0                       |           0                       |           0                       |           0                       |           0                       |           0                       |           0                       |           0                       |           0                       |           0                       |           0                       |           0                       |           0                       |           0                       |           0                       |           0                       |           0                       |           0                       |           0                       |           0                       |           0                       |           0                       |           0                       |           0                       |           0                       |           0                       |           0                       |           0                       |           0                       |           0                       |           0                       |           0                       |           0                       |           0                       |           0                       |           0                       |           0                       |           0                       |           0                       |           0                       |           0                       |           0                       |           0                       |           0                       |           0                       |           0                       |           0                       |           0                       |           0                       |           0                       |           0                       |           0                       # Coalsr-to-coalsr time for the Nth cache block in an inst (Unspecified)
system.cpu3.cacheBlockRoundTrip9::overflows            0                       # Coalsr-to-coalsr time for the Nth cache block in an inst (Unspecified)
system.cpu3.cacheBlockRoundTrip9::min_value            0                       # Coalsr-to-coalsr time for the Nth cache block in an inst (Unspecified)
system.cpu3.cacheBlockRoundTrip9::max_value            0                       # Coalsr-to-coalsr time for the Nth cache block in an inst (Unspecified)
system.cpu3.cacheBlockRoundTrip9::total             0                       # Coalsr-to-coalsr time for the Nth cache block in an inst (Unspecified)

---------- End Simulation Statistics   ----------
