
---------- Begin Simulation Statistics ----------
simSeconds                                   9.621506                       # Number of seconds simulated (Second)
simTicks                                 9621506222000                       # Number of ticks simulated (Tick)
finalTick                                9621506222000                       # Number of ticks from beginning of simulation (restored from checkpoints and never reset) (Tick)
simFreq                                  1000000000000                       # The number of ticks per simulated second ((Tick/Second))
hostSeconds                                 280682.63                       # Real time elapsed on the host (Second)
hostTickRate                                 34278951                       # The number of ticks simulated per host second (ticks/s) ((Tick/Second))
hostMemory                                    2725424                       # Number of bytes of host memory used (Byte)
simInsts                                   5742251273                       # Number of instructions simulated (Count)
simOps                                    12906187545                       # Number of ops (including micro ops) simulated (Count)
hostInstRate                                    20458                       # Simulator instruction rate (inst/s) ((Count/Second))
hostOpRate                                      45981                       # Simulator op (including micro ops) rate (op/s) ((Count/Second))
system.clk_domain.clock                          1000                       # Clock period in ticks (Tick)
system.cpu0.numCycles                     19243012443                       # Number of cpu cycles simulated (Cycle)
system.cpu0.numWorkItemsStarted                     0                       # Number of work items this cpu started (Count)
system.cpu0.numWorkItemsCompleted                   0                       # Number of work items this cpu completed (Count)
system.cpu0.clk_domain.clock                      500                       # Clock period in ticks (Tick)
system.cpu0.clk_domain.voltage_domain.voltage            1                       # Voltage in Volts (Volt)
system.cpu0.exec_context.thread_0.numInsts   5739974342                       # Number of instructions committed (Count)
system.cpu0.exec_context.thread_0.numOps  12901807944                       # Number of ops (including micro ops) committed (Count)
system.cpu0.exec_context.thread_0.numIntAluAccesses  11946513394                       # Number of integer alu accesses (Count)
system.cpu0.exec_context.thread_0.numFpAluAccesses      5425903                       # Number of float alu accesses (Count)
system.cpu0.exec_context.thread_0.numVecAluAccesses            0                       # Number of vector alu accesses (Count)
system.cpu0.exec_context.thread_0.numCallsReturns    952147826                       # Number of times a function call or return occured (Count)
system.cpu0.exec_context.thread_0.numCondCtrlInsts    956258524                       # Number of instructions that are conditional controls (Count)
system.cpu0.exec_context.thread_0.numIntInsts  11946513394                       # Number of integer instructions (Count)
system.cpu0.exec_context.thread_0.numFpInsts      5425903                       # Number of float instructions (Count)
system.cpu0.exec_context.thread_0.numVecInsts            0                       # Number of vector instructions (Count)
system.cpu0.exec_context.thread_0.numIntRegReads  10059372063                       # Number of times the integer registers were read (Count)
system.cpu0.exec_context.thread_0.numIntRegWrites   7649719261                       # Number of times the integer registers were written (Count)
system.cpu0.exec_context.thread_0.numFpRegReads      7805862                       # Number of times the floating registers were read (Count)
system.cpu0.exec_context.thread_0.numFpRegWrites      4451829                       # Number of times the floating registers were written (Count)
system.cpu0.exec_context.thread_0.numVecRegReads            0                       # Number of times the vector registers were read (Count)
system.cpu0.exec_context.thread_0.numVecRegWrites            0                       # Number of times the vector registers were written (Count)
system.cpu0.exec_context.thread_0.numVecPredRegReads            0                       # Number of times the predicate registers were read (Count)
system.cpu0.exec_context.thread_0.numVecPredRegWrites            0                       # Number of times the predicate registers were written (Count)
system.cpu0.exec_context.thread_0.numCCRegReads   5265087187                       # Number of times the CC registers were read (Count)
system.cpu0.exec_context.thread_0.numCCRegWrites   1922073937                       # Number of times the CC registers were written (Count)
system.cpu0.exec_context.thread_0.numMiscRegReads   7160365911                       # Number of times the Misc registers were read (Count)
system.cpu0.exec_context.thread_0.numMiscRegWrites         9871                       # Number of times the Misc registers were written (Count)
system.cpu0.exec_context.thread_0.numMemRefs   1915149651                       # Number of memory refs (Count)
system.cpu0.exec_context.thread_0.numLoadInsts   1435391791                       # Number of load instructions (Count)
system.cpu0.exec_context.thread_0.numStoreInsts    479757860                       # Number of store instructions (Count)
system.cpu0.exec_context.thread_0.numIdleCycles 6721145.999650                       # Number of idle cycles (Cycle)
system.cpu0.exec_context.thread_0.numBusyCycles 19236291297.000351                       # Number of busy cycles (Cycle)
system.cpu0.exec_context.thread_0.notIdleFraction     0.999651                       # Percentage of non-idle cycles (Ratio)
system.cpu0.exec_context.thread_0.idleFraction     0.000349                       # Percentage of idle cycles (Ratio)
system.cpu0.exec_context.thread_0.numBranches   2860210607                       # Number of branches fetched (Count)
system.cpu0.exec_context.thread_0.statExecutedInstType::No_OpClass    951902416      7.12%      7.12% # Class of executed instruction. (Count)
system.cpu0.exec_context.thread_0.statExecutedInstType::IntAlu  10507070060     78.54%     85.66% # Class of executed instruction. (Count)
system.cpu0.exec_context.thread_0.statExecutedInstType::IntMult        97856      0.00%     85.66% # Class of executed instruction. (Count)
system.cpu0.exec_context.thread_0.statExecutedInstType::IntDiv       111705      0.00%     85.66% # Class of executed instruction. (Count)
system.cpu0.exec_context.thread_0.statExecutedInstType::FloatAdd       353585      0.00%     85.66% # Class of executed instruction. (Count)
system.cpu0.exec_context.thread_0.statExecutedInstType::FloatCmp          501      0.00%     85.66% # Class of executed instruction. (Count)
system.cpu0.exec_context.thread_0.statExecutedInstType::FloatCvt         8382      0.00%     85.66% # Class of executed instruction. (Count)
system.cpu0.exec_context.thread_0.statExecutedInstType::FloatMult          167      0.00%     85.66% # Class of executed instruction. (Count)
system.cpu0.exec_context.thread_0.statExecutedInstType::FloatMultAcc            0      0.00%     85.66% # Class of executed instruction. (Count)
system.cpu0.exec_context.thread_0.statExecutedInstType::FloatDiv          167      0.00%     85.66% # Class of executed instruction. (Count)
system.cpu0.exec_context.thread_0.statExecutedInstType::FloatMisc            0      0.00%     85.66% # Class of executed instruction. (Count)
system.cpu0.exec_context.thread_0.statExecutedInstType::FloatSqrt            0      0.00%     85.66% # Class of executed instruction. (Count)
system.cpu0.exec_context.thread_0.statExecutedInstType::SimdAdd        22452      0.00%     85.66% # Class of executed instruction. (Count)
system.cpu0.exec_context.thread_0.statExecutedInstType::SimdAddAcc            0      0.00%     85.66% # Class of executed instruction. (Count)
system.cpu0.exec_context.thread_0.statExecutedInstType::SimdAlu       746174      0.01%     85.67% # Class of executed instruction. (Count)
system.cpu0.exec_context.thread_0.statExecutedInstType::SimdCmp         3090      0.00%     85.67% # Class of executed instruction. (Count)
system.cpu0.exec_context.thread_0.statExecutedInstType::SimdCvt        82926      0.00%     85.67% # Class of executed instruction. (Count)
system.cpu0.exec_context.thread_0.statExecutedInstType::SimdMisc       423315      0.00%     85.67% # Class of executed instruction. (Count)
system.cpu0.exec_context.thread_0.statExecutedInstType::SimdMult            0      0.00%     85.67% # Class of executed instruction. (Count)
system.cpu0.exec_context.thread_0.statExecutedInstType::SimdMultAcc            0      0.00%     85.67% # Class of executed instruction. (Count)
system.cpu0.exec_context.thread_0.statExecutedInstType::SimdShift         9858      0.00%     85.67% # Class of executed instruction. (Count)
system.cpu0.exec_context.thread_0.statExecutedInstType::SimdShiftAcc            0      0.00%     85.67% # Class of executed instruction. (Count)
system.cpu0.exec_context.thread_0.statExecutedInstType::SimdDiv            0      0.00%     85.67% # Class of executed instruction. (Count)
system.cpu0.exec_context.thread_0.statExecutedInstType::SimdSqrt            0      0.00%     85.67% # Class of executed instruction. (Count)
system.cpu0.exec_context.thread_0.statExecutedInstType::SimdFloatAdd       438058      0.00%     85.68% # Class of executed instruction. (Count)
system.cpu0.exec_context.thread_0.statExecutedInstType::SimdFloatAlu            0      0.00%     85.68% # Class of executed instruction. (Count)
system.cpu0.exec_context.thread_0.statExecutedInstType::SimdFloatCmp            2      0.00%     85.68% # Class of executed instruction. (Count)
system.cpu0.exec_context.thread_0.statExecutedInstType::SimdFloatCvt       600898      0.00%     85.68% # Class of executed instruction. (Count)
system.cpu0.exec_context.thread_0.statExecutedInstType::SimdFloatDiv        66161      0.00%     85.68% # Class of executed instruction. (Count)
system.cpu0.exec_context.thread_0.statExecutedInstType::SimdFloatMisc            0      0.00%     85.68% # Class of executed instruction. (Count)
system.cpu0.exec_context.thread_0.statExecutedInstType::SimdFloatMult       424285      0.00%     85.68% # Class of executed instruction. (Count)
system.cpu0.exec_context.thread_0.statExecutedInstType::SimdFloatMultAcc            0      0.00%     85.68% # Class of executed instruction. (Count)
system.cpu0.exec_context.thread_0.statExecutedInstType::SimdFloatSqrt         3102      0.00%     85.68% # Class of executed instruction. (Count)
system.cpu0.exec_context.thread_0.statExecutedInstType::SimdReduceAdd            0      0.00%     85.68% # Class of executed instruction. (Count)
system.cpu0.exec_context.thread_0.statExecutedInstType::SimdReduceAlu            0      0.00%     85.68% # Class of executed instruction. (Count)
system.cpu0.exec_context.thread_0.statExecutedInstType::SimdReduceCmp            0      0.00%     85.68% # Class of executed instruction. (Count)
system.cpu0.exec_context.thread_0.statExecutedInstType::SimdFloatReduceAdd            0      0.00%     85.68% # Class of executed instruction. (Count)
system.cpu0.exec_context.thread_0.statExecutedInstType::SimdFloatReduceCmp            0      0.00%     85.68% # Class of executed instruction. (Count)
system.cpu0.exec_context.thread_0.statExecutedInstType::SimdAes            0      0.00%     85.68% # Class of executed instruction. (Count)
system.cpu0.exec_context.thread_0.statExecutedInstType::SimdAesMix            0      0.00%     85.68% # Class of executed instruction. (Count)
system.cpu0.exec_context.thread_0.statExecutedInstType::SimdSha1Hash            0      0.00%     85.68% # Class of executed instruction. (Count)
system.cpu0.exec_context.thread_0.statExecutedInstType::SimdSha1Hash2            0      0.00%     85.68% # Class of executed instruction. (Count)
system.cpu0.exec_context.thread_0.statExecutedInstType::SimdSha256Hash            0      0.00%     85.68% # Class of executed instruction. (Count)
system.cpu0.exec_context.thread_0.statExecutedInstType::SimdSha256Hash2            0      0.00%     85.68% # Class of executed instruction. (Count)
system.cpu0.exec_context.thread_0.statExecutedInstType::SimdShaSigma2            0      0.00%     85.68% # Class of executed instruction. (Count)
system.cpu0.exec_context.thread_0.statExecutedInstType::SimdShaSigma3            0      0.00%     85.68% # Class of executed instruction. (Count)
system.cpu0.exec_context.thread_0.statExecutedInstType::SimdPredAlu            0      0.00%     85.68% # Class of executed instruction. (Count)
system.cpu0.exec_context.thread_0.statExecutedInstType::MemRead   1434130561     10.72%     96.40% # Class of executed instruction. (Count)
system.cpu0.exec_context.thread_0.statExecutedInstType::MemWrite    479262829      3.58%     99.99% # Class of executed instruction. (Count)
system.cpu0.exec_context.thread_0.statExecutedInstType::FloatMemRead      1261230      0.01%    100.00% # Class of executed instruction. (Count)
system.cpu0.exec_context.thread_0.statExecutedInstType::FloatMemWrite       495031      0.00%    100.00% # Class of executed instruction. (Count)
system.cpu0.exec_context.thread_0.statExecutedInstType::IprAccess            0      0.00%    100.00% # Class of executed instruction. (Count)
system.cpu0.exec_context.thread_0.statExecutedInstType::InstPrefetch            0      0.00%    100.00% # Class of executed instruction. (Count)
system.cpu0.exec_context.thread_0.statExecutedInstType::total  13377514811                       # Class of executed instruction. (Count)
system.cpu0.interrupts.clk_domain.clock          8000                       # Clock period in ticks (Tick)
system.cpu0.mmu.dtb.rdAccesses             1435402838                       # TLB accesses on read requests (Count)
system.cpu0.mmu.dtb.wrAccesses              479760385                       # TLB accesses on write requests (Count)
system.cpu0.mmu.dtb.rdMisses                    16052                       # TLB misses on read requests (Count)
system.cpu0.mmu.dtb.wrMisses                     4512                       # TLB misses on write requests (Count)
system.cpu0.mmu.dtb.walker.power_state.pwrStateResidencyTicks::UNDEFINED 9621506222000                       # Cumulative time (in ticks) in various power states (Tick)
system.cpu0.mmu.itb.rdAccesses                      0                       # TLB accesses on read requests (Count)
system.cpu0.mmu.itb.wrAccesses             7654378548                       # TLB accesses on write requests (Count)
system.cpu0.mmu.itb.rdMisses                        0                       # TLB misses on read requests (Count)
system.cpu0.mmu.itb.wrMisses                     9183                       # TLB misses on write requests (Count)
system.cpu0.mmu.itb.walker.power_state.pwrStateResidencyTicks::UNDEFINED 9621506222000                       # Cumulative time (in ticks) in various power states (Tick)
system.cpu0.power_state.numTransitions             18                       # Number of power state transitions (Count)
system.cpu0.power_state.ticksClkGated::samples            9                       # Distribution of time spent in the clock gated state (Tick)
system.cpu0.power_state.ticksClkGated::mean    373397000                       # Distribution of time spent in the clock gated state (Tick)
system.cpu0.power_state.ticksClkGated::stdev 1077209663.883615                       # Distribution of time spent in the clock gated state (Tick)
system.cpu0.power_state.ticksClkGated::1000-5e+10            9    100.00%    100.00% # Distribution of time spent in the clock gated state (Tick)
system.cpu0.power_state.ticksClkGated::min_value       134500                       # Distribution of time spent in the clock gated state (Tick)
system.cpu0.power_state.ticksClkGated::max_value   3245126000                       # Distribution of time spent in the clock gated state (Tick)
system.cpu0.power_state.ticksClkGated::total            9                       # Distribution of time spent in the clock gated state (Tick)
system.cpu0.power_state.pwrStateResidencyTicks::ON 9618145649000                       # Cumulative time (in ticks) in various power states (Tick)
system.cpu0.power_state.pwrStateResidencyTicks::CLK_GATED   3360573000                       # Cumulative time (in ticks) in various power states (Tick)
system.cpu0.thread_0.numInsts                       0                       # Number of Instructions committed (Count)
system.cpu0.thread_0.numOps                         0                       # Number of Ops committed (Count)
system.cpu0.thread_0.numMemRefs                     0                       # Number of Memory References (Count)
system.cpu0.workload.numSyscalls            475701672                       # Number of system calls (Count)
system.cpu0.workload.drivers0.device.dispatcher.numKernelLaunched            4                       # number of kernel launched (Unspecified)
system.cpu0.workload.drivers0.device.dispatcher.cyclesWaitingForDispatch           98                       # number of cycles with outstanding wavefronts that are waiting to be dispatched (Unspecified)
system.cpu0.workload.drivers0.device.hsapp.power_state.pwrStateResidencyTicks::UNDEFINED 9621506222000                       # Cumulative time (in ticks) in various power states (Tick)
system.cpu0.workload.drivers0.device.hsapp.walker.power_state.pwrStateResidencyTicks::UNDEFINED 9621506222000                       # Cumulative time (in ticks) in various power states (Tick)
system.cpu0.workload.drivers0.device.power_state.pwrStateResidencyTicks::UNDEFINED 9621506222000                       # Cumulative time (in ticks) in various power states (Tick)
system.cpu0.workload.drivers0.device.walker.power_state.pwrStateResidencyTicks::UNDEFINED 9621506222000                       # Cumulative time (in ticks) in various power states (Tick)
system.cpu1.numCycles                       196462508                       # Number of cpu cycles simulated (Cycle)
system.cpu1.numWorkItemsStarted                     0                       # Number of work items this cpu started (Count)
system.cpu1.numWorkItemsCompleted                   0                       # Number of work items this cpu completed (Count)
system.cpu1.clk_domain.clock                      500                       # Clock period in ticks (Tick)
system.cpu1.clk_domain.voltage_domain.voltage            1                       # Voltage in Volts (Volt)
system.cpu1.exec_context.thread_0.numInsts       350208                       # Number of instructions committed (Count)
system.cpu1.exec_context.thread_0.numOps       652220                       # Number of ops (including micro ops) committed (Count)
system.cpu1.exec_context.thread_0.numIntAluAccesses       628535                       # Number of integer alu accesses (Count)
system.cpu1.exec_context.thread_0.numFpAluAccesses        20530                       # Number of float alu accesses (Count)
system.cpu1.exec_context.thread_0.numVecAluAccesses            0                       # Number of vector alu accesses (Count)
system.cpu1.exec_context.thread_0.numCallsReturns        18332                       # Number of times a function call or return occured (Count)
system.cpu1.exec_context.thread_0.numCondCtrlInsts        90467                       # Number of instructions that are conditional controls (Count)
system.cpu1.exec_context.thread_0.numIntInsts       628535                       # Number of integer instructions (Count)
system.cpu1.exec_context.thread_0.numFpInsts        20530                       # Number of float instructions (Count)
system.cpu1.exec_context.thread_0.numVecInsts            0                       # Number of vector instructions (Count)
system.cpu1.exec_context.thread_0.numIntRegReads       685054                       # Number of times the integer registers were read (Count)
system.cpu1.exec_context.thread_0.numIntRegWrites       408729                       # Number of times the integer registers were written (Count)
system.cpu1.exec_context.thread_0.numFpRegReads        24720                       # Number of times the floating registers were read (Count)
system.cpu1.exec_context.thread_0.numFpRegWrites        17190                       # Number of times the floating registers were written (Count)
system.cpu1.exec_context.thread_0.numVecRegReads            0                       # Number of times the vector registers were read (Count)
system.cpu1.exec_context.thread_0.numVecRegWrites            0                       # Number of times the vector registers were written (Count)
system.cpu1.exec_context.thread_0.numVecPredRegReads            0                       # Number of times the predicate registers were read (Count)
system.cpu1.exec_context.thread_0.numVecPredRegWrites            0                       # Number of times the predicate registers were written (Count)
system.cpu1.exec_context.thread_0.numCCRegReads       553100                       # Number of times the CC registers were read (Count)
system.cpu1.exec_context.thread_0.numCCRegWrites       189826                       # Number of times the CC registers were written (Count)
system.cpu1.exec_context.thread_0.numMiscRegReads       378831                       # Number of times the Misc registers were read (Count)
system.cpu1.exec_context.thread_0.numMiscRegWrites           27                       # Number of times the Misc registers were written (Count)
system.cpu1.exec_context.thread_0.numMemRefs       160732                       # Number of memory refs (Count)
system.cpu1.exec_context.thread_0.numLoadInsts       145652                       # Number of load instructions (Count)
system.cpu1.exec_context.thread_0.numStoreInsts        15080                       # Number of store instructions (Count)
system.cpu1.exec_context.thread_0.numIdleCycles 196448742.544690                       # Number of idle cycles (Cycle)
system.cpu1.exec_context.thread_0.numBusyCycles 13765.455310                       # Number of busy cycles (Cycle)
system.cpu1.exec_context.thread_0.notIdleFraction     0.000070                       # Percentage of non-idle cycles (Ratio)
system.cpu1.exec_context.thread_0.idleFraction     0.999930                       # Percentage of idle cycles (Ratio)
system.cpu1.exec_context.thread_0.numBranches       111537                       # Number of branches fetched (Count)
system.cpu1.exec_context.thread_0.statExecutedInstType::No_OpClass        10657      1.63%      1.63% # Class of executed instruction. (Count)
system.cpu1.exec_context.thread_0.statExecutedInstType::IntAlu       466554     71.53%     73.17% # Class of executed instruction. (Count)
system.cpu1.exec_context.thread_0.statExecutedInstType::IntMult            5      0.00%     73.17% # Class of executed instruction. (Count)
system.cpu1.exec_context.thread_0.statExecutedInstType::IntDiv           75      0.01%     73.18% # Class of executed instruction. (Count)
system.cpu1.exec_context.thread_0.statExecutedInstType::FloatAdd         2894      0.44%     73.62% # Class of executed instruction. (Count)
system.cpu1.exec_context.thread_0.statExecutedInstType::FloatCmp            0      0.00%     73.62% # Class of executed instruction. (Count)
system.cpu1.exec_context.thread_0.statExecutedInstType::FloatCvt           48      0.01%     73.63% # Class of executed instruction. (Count)
system.cpu1.exec_context.thread_0.statExecutedInstType::FloatMult            0      0.00%     73.63% # Class of executed instruction. (Count)
system.cpu1.exec_context.thread_0.statExecutedInstType::FloatMultAcc            0      0.00%     73.63% # Class of executed instruction. (Count)
system.cpu1.exec_context.thread_0.statExecutedInstType::FloatDiv            0      0.00%     73.63% # Class of executed instruction. (Count)
system.cpu1.exec_context.thread_0.statExecutedInstType::FloatMisc            0      0.00%     73.63% # Class of executed instruction. (Count)
system.cpu1.exec_context.thread_0.statExecutedInstType::FloatSqrt            0      0.00%     73.63% # Class of executed instruction. (Count)
system.cpu1.exec_context.thread_0.statExecutedInstType::SimdAdd           20      0.00%     73.63% # Class of executed instruction. (Count)
system.cpu1.exec_context.thread_0.statExecutedInstType::SimdAddAcc            0      0.00%     73.63% # Class of executed instruction. (Count)
system.cpu1.exec_context.thread_0.statExecutedInstType::SimdAlu         2784      0.43%     74.06% # Class of executed instruction. (Count)
system.cpu1.exec_context.thread_0.statExecutedInstType::SimdCmp            0      0.00%     74.06% # Class of executed instruction. (Count)
system.cpu1.exec_context.thread_0.statExecutedInstType::SimdCvt           40      0.01%     74.07% # Class of executed instruction. (Count)
system.cpu1.exec_context.thread_0.statExecutedInstType::SimdMisc         1573      0.24%     74.31% # Class of executed instruction. (Count)
system.cpu1.exec_context.thread_0.statExecutedInstType::SimdMult            0      0.00%     74.31% # Class of executed instruction. (Count)
system.cpu1.exec_context.thread_0.statExecutedInstType::SimdMultAcc            0      0.00%     74.31% # Class of executed instruction. (Count)
system.cpu1.exec_context.thread_0.statExecutedInstType::SimdShift           21      0.00%     74.31% # Class of executed instruction. (Count)
system.cpu1.exec_context.thread_0.statExecutedInstType::SimdShiftAcc            0      0.00%     74.31% # Class of executed instruction. (Count)
system.cpu1.exec_context.thread_0.statExecutedInstType::SimdDiv            0      0.00%     74.31% # Class of executed instruction. (Count)
system.cpu1.exec_context.thread_0.statExecutedInstType::SimdSqrt            0      0.00%     74.31% # Class of executed instruction. (Count)
system.cpu1.exec_context.thread_0.statExecutedInstType::SimdFloatAdd         1366      0.21%     74.52% # Class of executed instruction. (Count)
system.cpu1.exec_context.thread_0.statExecutedInstType::SimdFloatAlu            0      0.00%     74.52% # Class of executed instruction. (Count)
system.cpu1.exec_context.thread_0.statExecutedInstType::SimdFloatCmp            0      0.00%     74.52% # Class of executed instruction. (Count)
system.cpu1.exec_context.thread_0.statExecutedInstType::SimdFloatCvt         4088      0.63%     75.15% # Class of executed instruction. (Count)
system.cpu1.exec_context.thread_0.statExecutedInstType::SimdFloatDiv            9      0.00%     75.15% # Class of executed instruction. (Count)
system.cpu1.exec_context.thread_0.statExecutedInstType::SimdFloatMisc            0      0.00%     75.15% # Class of executed instruction. (Count)
system.cpu1.exec_context.thread_0.statExecutedInstType::SimdFloatMult         1365      0.21%     75.36% # Class of executed instruction. (Count)
system.cpu1.exec_context.thread_0.statExecutedInstType::SimdFloatMultAcc            0      0.00%     75.36% # Class of executed instruction. (Count)
system.cpu1.exec_context.thread_0.statExecutedInstType::SimdFloatSqrt            0      0.00%     75.36% # Class of executed instruction. (Count)
system.cpu1.exec_context.thread_0.statExecutedInstType::SimdReduceAdd            0      0.00%     75.36% # Class of executed instruction. (Count)
system.cpu1.exec_context.thread_0.statExecutedInstType::SimdReduceAlu            0      0.00%     75.36% # Class of executed instruction. (Count)
system.cpu1.exec_context.thread_0.statExecutedInstType::SimdReduceCmp            0      0.00%     75.36% # Class of executed instruction. (Count)
system.cpu1.exec_context.thread_0.statExecutedInstType::SimdFloatReduceAdd            0      0.00%     75.36% # Class of executed instruction. (Count)
system.cpu1.exec_context.thread_0.statExecutedInstType::SimdFloatReduceCmp            0      0.00%     75.36% # Class of executed instruction. (Count)
system.cpu1.exec_context.thread_0.statExecutedInstType::SimdAes            0      0.00%     75.36% # Class of executed instruction. (Count)
system.cpu1.exec_context.thread_0.statExecutedInstType::SimdAesMix            0      0.00%     75.36% # Class of executed instruction. (Count)
system.cpu1.exec_context.thread_0.statExecutedInstType::SimdSha1Hash            0      0.00%     75.36% # Class of executed instruction. (Count)
system.cpu1.exec_context.thread_0.statExecutedInstType::SimdSha1Hash2            0      0.00%     75.36% # Class of executed instruction. (Count)
system.cpu1.exec_context.thread_0.statExecutedInstType::SimdSha256Hash            0      0.00%     75.36% # Class of executed instruction. (Count)
system.cpu1.exec_context.thread_0.statExecutedInstType::SimdSha256Hash2            0      0.00%     75.36% # Class of executed instruction. (Count)
system.cpu1.exec_context.thread_0.statExecutedInstType::SimdShaSigma2            0      0.00%     75.36% # Class of executed instruction. (Count)
system.cpu1.exec_context.thread_0.statExecutedInstType::SimdShaSigma3            0      0.00%     75.36% # Class of executed instruction. (Count)
system.cpu1.exec_context.thread_0.statExecutedInstType::SimdPredAlu            0      0.00%     75.36% # Class of executed instruction. (Count)
system.cpu1.exec_context.thread_0.statExecutedInstType::MemRead       140043     21.47%     96.83% # Class of executed instruction. (Count)
system.cpu1.exec_context.thread_0.statExecutedInstType::MemWrite        14527      2.23%     99.06% # Class of executed instruction. (Count)
system.cpu1.exec_context.thread_0.statExecutedInstType::FloatMemRead         5609      0.86%     99.92% # Class of executed instruction. (Count)
system.cpu1.exec_context.thread_0.statExecutedInstType::FloatMemWrite          553      0.08%    100.00% # Class of executed instruction. (Count)
system.cpu1.exec_context.thread_0.statExecutedInstType::IprAccess            0      0.00%    100.00% # Class of executed instruction. (Count)
system.cpu1.exec_context.thread_0.statExecutedInstType::InstPrefetch            0      0.00%    100.00% # Class of executed instruction. (Count)
system.cpu1.exec_context.thread_0.statExecutedInstType::total       652231                       # Class of executed instruction. (Count)
system.cpu1.interrupts.clk_domain.clock          8000                       # Clock period in ticks (Tick)
system.cpu1.mmu.dtb.rdAccesses                 145652                       # TLB accesses on read requests (Count)
system.cpu1.mmu.dtb.wrAccesses                  15080                       # TLB accesses on write requests (Count)
system.cpu1.mmu.dtb.rdMisses                      148                       # TLB misses on read requests (Count)
system.cpu1.mmu.dtb.wrMisses                        3                       # TLB misses on write requests (Count)
system.cpu1.mmu.dtb.walker.power_state.pwrStateResidencyTicks::UNDEFINED 9621506222000                       # Cumulative time (in ticks) in various power states (Tick)
system.cpu1.mmu.itb.rdAccesses                      0                       # TLB accesses on read requests (Count)
system.cpu1.mmu.itb.wrAccesses                 462638                       # TLB accesses on write requests (Count)
system.cpu1.mmu.itb.rdMisses                        0                       # TLB misses on read requests (Count)
system.cpu1.mmu.itb.wrMisses                      125                       # TLB misses on write requests (Count)
system.cpu1.mmu.itb.walker.power_state.pwrStateResidencyTicks::UNDEFINED 9621506222000                       # Cumulative time (in ticks) in various power states (Tick)
system.cpu1.power_state.numTransitions              5                       # Number of power state transitions (Count)
system.cpu1.power_state.ticksClkGated::samples            3                       # Distribution of time spent in the clock gated state (Tick)
system.cpu1.power_state.ticksClkGated::mean 3176952322500                       # Distribution of time spent in the clock gated state (Tick)
system.cpu1.power_state.ticksClkGated::stdev 5496076668229.247070                       # Distribution of time spent in the clock gated state (Tick)
system.cpu1.power_state.ticksClkGated::1000-5e+10            2     66.67%     66.67% # Distribution of time spent in the clock gated state (Tick)
system.cpu1.power_state.ticksClkGated::overflows            1     33.33%    100.00% # Distribution of time spent in the clock gated state (Tick)
system.cpu1.power_state.ticksClkGated::min_value   3156599000                       # Distribution of time spent in the clock gated state (Tick)
system.cpu1.power_state.ticksClkGated::max_value 9523274968000                       # Distribution of time spent in the clock gated state (Tick)
system.cpu1.power_state.ticksClkGated::total            3                       # Distribution of time spent in the clock gated state (Tick)
system.cpu1.power_state.pwrStateResidencyTicks::ON  90649254500                       # Cumulative time (in ticks) in various power states (Tick)
system.cpu1.power_state.pwrStateResidencyTicks::CLK_GATED 9530856967500                       # Cumulative time (in ticks) in various power states (Tick)
system.cpu1.thread_0.numInsts                       0                       # Number of Instructions committed (Count)
system.cpu1.thread_0.numOps                         0                       # Number of Ops committed (Count)
system.cpu1.thread_0.numMemRefs                     0                       # Number of Memory References (Count)
system.cpu2.numCycles                       230196837                       # Number of cpu cycles simulated (Cycle)
system.cpu2.numWorkItemsStarted                     0                       # Number of work items this cpu started (Count)
system.cpu2.numWorkItemsCompleted                   0                       # Number of work items this cpu completed (Count)
system.cpu2.clk_domain.clock                      500                       # Clock period in ticks (Tick)
system.cpu2.clk_domain.voltage_domain.voltage            1                       # Voltage in Volts (Volt)
system.cpu2.exec_context.thread_0.numInsts      1926723                       # Number of instructions committed (Count)
system.cpu2.exec_context.thread_0.numOps      3727381                       # Number of ops (including micro ops) committed (Count)
system.cpu2.exec_context.thread_0.numIntAluAccesses      3514838                       # Number of integer alu accesses (Count)
system.cpu2.exec_context.thread_0.numFpAluAccesses       360439                       # Number of float alu accesses (Count)
system.cpu2.exec_context.thread_0.numVecAluAccesses            0                       # Number of vector alu accesses (Count)
system.cpu2.exec_context.thread_0.numCallsReturns        71651                       # Number of times a function call or return occured (Count)
system.cpu2.exec_context.thread_0.numCondCtrlInsts       286923                       # Number of instructions that are conditional controls (Count)
system.cpu2.exec_context.thread_0.numIntInsts      3514838                       # Number of integer instructions (Count)
system.cpu2.exec_context.thread_0.numFpInsts       360439                       # Number of float instructions (Count)
system.cpu2.exec_context.thread_0.numVecInsts            0                       # Number of vector instructions (Count)
system.cpu2.exec_context.thread_0.numIntRegReads      4206377                       # Number of times the integer registers were read (Count)
system.cpu2.exec_context.thread_0.numIntRegWrites      2357417                       # Number of times the integer registers were written (Count)
system.cpu2.exec_context.thread_0.numFpRegReads       327912                       # Number of times the floating registers were read (Count)
system.cpu2.exec_context.thread_0.numFpRegWrites       235224                       # Number of times the floating registers were written (Count)
system.cpu2.exec_context.thread_0.numVecRegReads            0                       # Number of times the vector registers were read (Count)
system.cpu2.exec_context.thread_0.numVecRegWrites            0                       # Number of times the vector registers were written (Count)
system.cpu2.exec_context.thread_0.numVecPredRegReads            0                       # Number of times the predicate registers were read (Count)
system.cpu2.exec_context.thread_0.numVecPredRegWrites            0                       # Number of times the predicate registers were written (Count)
system.cpu2.exec_context.thread_0.numCCRegReads      2074256                       # Number of times the CC registers were read (Count)
system.cpu2.exec_context.thread_0.numCCRegWrites      1076403                       # Number of times the CC registers were written (Count)
system.cpu2.exec_context.thread_0.numMiscRegReads      1734941                       # Number of times the Misc registers were read (Count)
system.cpu2.exec_context.thread_0.numMiscRegWrites          230                       # Number of times the Misc registers were written (Count)
system.cpu2.exec_context.thread_0.numMemRefs       880944                       # Number of memory refs (Count)
system.cpu2.exec_context.thread_0.numLoadInsts       529837                       # Number of load instructions (Count)
system.cpu2.exec_context.thread_0.numStoreInsts       351107                       # Number of store instructions (Count)
system.cpu2.exec_context.thread_0.numIdleCycles 229972141.047326                       # Number of idle cycles (Cycle)
system.cpu2.exec_context.thread_0.numBusyCycles 224695.952674                       # Number of busy cycles (Cycle)
system.cpu2.exec_context.thread_0.notIdleFraction     0.000976                       # Percentage of non-idle cycles (Ratio)
system.cpu2.exec_context.thread_0.idleFraction     0.999024                       # Percentage of idle cycles (Ratio)
system.cpu2.exec_context.thread_0.numBranches       406242                       # Number of branches fetched (Count)
system.cpu2.exec_context.thread_0.statExecutedInstType::No_OpClass        51860      1.39%      1.39% # Class of executed instruction. (Count)
system.cpu2.exec_context.thread_0.statExecutedInstType::IntAlu      2669194     71.57%     72.96% # Class of executed instruction. (Count)
system.cpu2.exec_context.thread_0.statExecutedInstType::IntMult         1385      0.04%     73.00% # Class of executed instruction. (Count)
system.cpu2.exec_context.thread_0.statExecutedInstType::IntDiv          817      0.02%     73.02% # Class of executed instruction. (Count)
system.cpu2.exec_context.thread_0.statExecutedInstType::FloatAdd        19423      0.52%     73.54% # Class of executed instruction. (Count)
system.cpu2.exec_context.thread_0.statExecutedInstType::FloatCmp            3      0.00%     73.54% # Class of executed instruction. (Count)
system.cpu2.exec_context.thread_0.statExecutedInstType::FloatCvt          354      0.01%     73.55% # Class of executed instruction. (Count)
system.cpu2.exec_context.thread_0.statExecutedInstType::FloatMult            1      0.00%     73.55% # Class of executed instruction. (Count)
system.cpu2.exec_context.thread_0.statExecutedInstType::FloatMultAcc            0      0.00%     73.55% # Class of executed instruction. (Count)
system.cpu2.exec_context.thread_0.statExecutedInstType::FloatDiv            1      0.00%     73.55% # Class of executed instruction. (Count)
system.cpu2.exec_context.thread_0.statExecutedInstType::FloatMisc            0      0.00%     73.55% # Class of executed instruction. (Count)
system.cpu2.exec_context.thread_0.statExecutedInstType::FloatSqrt            0      0.00%     73.55% # Class of executed instruction. (Count)
system.cpu2.exec_context.thread_0.statExecutedInstType::SimdAdd          336      0.01%     73.56% # Class of executed instruction. (Count)
system.cpu2.exec_context.thread_0.statExecutedInstType::SimdAddAcc            0      0.00%     73.56% # Class of executed instruction. (Count)
system.cpu2.exec_context.thread_0.statExecutedInstType::SimdAlu        31896      0.86%     74.42% # Class of executed instruction. (Count)
system.cpu2.exec_context.thread_0.statExecutedInstType::SimdCmp           12      0.00%     74.42% # Class of executed instruction. (Count)
system.cpu2.exec_context.thread_0.statExecutedInstType::SimdCvt          394      0.01%     74.43% # Class of executed instruction. (Count)
system.cpu2.exec_context.thread_0.statExecutedInstType::SimdMisc        13645      0.37%     74.79% # Class of executed instruction. (Count)
system.cpu2.exec_context.thread_0.statExecutedInstType::SimdMult            0      0.00%     74.79% # Class of executed instruction. (Count)
system.cpu2.exec_context.thread_0.statExecutedInstType::SimdMultAcc            0      0.00%     74.79% # Class of executed instruction. (Count)
system.cpu2.exec_context.thread_0.statExecutedInstType::SimdShift          209      0.01%     74.80% # Class of executed instruction. (Count)
system.cpu2.exec_context.thread_0.statExecutedInstType::SimdShiftAcc            0      0.00%     74.80% # Class of executed instruction. (Count)
system.cpu2.exec_context.thread_0.statExecutedInstType::SimdDiv            0      0.00%     74.80% # Class of executed instruction. (Count)
system.cpu2.exec_context.thread_0.statExecutedInstType::SimdSqrt            0      0.00%     74.80% # Class of executed instruction. (Count)
system.cpu2.exec_context.thread_0.statExecutedInstType::SimdFloatAdd        12444      0.33%     75.13% # Class of executed instruction. (Count)
system.cpu2.exec_context.thread_0.statExecutedInstType::SimdFloatAlu            0      0.00%     75.13% # Class of executed instruction. (Count)
system.cpu2.exec_context.thread_0.statExecutedInstType::SimdFloatCmp            0      0.00%     75.13% # Class of executed instruction. (Count)
system.cpu2.exec_context.thread_0.statExecutedInstType::SimdFloatCvt        34066      0.91%     76.04% # Class of executed instruction. (Count)
system.cpu2.exec_context.thread_0.statExecutedInstType::SimdFloatDiv           12      0.00%     76.04% # Class of executed instruction. (Count)
system.cpu2.exec_context.thread_0.statExecutedInstType::SimdFloatMisc            0      0.00%     76.04% # Class of executed instruction. (Count)
system.cpu2.exec_context.thread_0.statExecutedInstType::SimdFloatMult        12453      0.33%     76.38% # Class of executed instruction. (Count)
system.cpu2.exec_context.thread_0.statExecutedInstType::SimdFloatMultAcc            0      0.00%     76.38% # Class of executed instruction. (Count)
system.cpu2.exec_context.thread_0.statExecutedInstType::SimdFloatSqrt            0      0.00%     76.38% # Class of executed instruction. (Count)
system.cpu2.exec_context.thread_0.statExecutedInstType::SimdReduceAdd            0      0.00%     76.38% # Class of executed instruction. (Count)
system.cpu2.exec_context.thread_0.statExecutedInstType::SimdReduceAlu            0      0.00%     76.38% # Class of executed instruction. (Count)
system.cpu2.exec_context.thread_0.statExecutedInstType::SimdReduceCmp            0      0.00%     76.38% # Class of executed instruction. (Count)
system.cpu2.exec_context.thread_0.statExecutedInstType::SimdFloatReduceAdd            0      0.00%     76.38% # Class of executed instruction. (Count)
system.cpu2.exec_context.thread_0.statExecutedInstType::SimdFloatReduceCmp            0      0.00%     76.38% # Class of executed instruction. (Count)
system.cpu2.exec_context.thread_0.statExecutedInstType::SimdAes            0      0.00%     76.38% # Class of executed instruction. (Count)
system.cpu2.exec_context.thread_0.statExecutedInstType::SimdAesMix            0      0.00%     76.38% # Class of executed instruction. (Count)
system.cpu2.exec_context.thread_0.statExecutedInstType::SimdSha1Hash            0      0.00%     76.38% # Class of executed instruction. (Count)
system.cpu2.exec_context.thread_0.statExecutedInstType::SimdSha1Hash2            0      0.00%     76.38% # Class of executed instruction. (Count)
system.cpu2.exec_context.thread_0.statExecutedInstType::SimdSha256Hash            0      0.00%     76.38% # Class of executed instruction. (Count)
system.cpu2.exec_context.thread_0.statExecutedInstType::SimdSha256Hash2            0      0.00%     76.38% # Class of executed instruction. (Count)
system.cpu2.exec_context.thread_0.statExecutedInstType::SimdShaSigma2            0      0.00%     76.38% # Class of executed instruction. (Count)
system.cpu2.exec_context.thread_0.statExecutedInstType::SimdShaSigma3            0      0.00%     76.38% # Class of executed instruction. (Count)
system.cpu2.exec_context.thread_0.statExecutedInstType::SimdPredAlu            0      0.00%     76.38% # Class of executed instruction. (Count)
system.cpu2.exec_context.thread_0.statExecutedInstType::MemRead       398418     10.68%     87.06% # Class of executed instruction. (Count)
system.cpu2.exec_context.thread_0.statExecutedInstType::MemWrite       248075      6.65%     93.71% # Class of executed instruction. (Count)
system.cpu2.exec_context.thread_0.statExecutedInstType::FloatMemRead       131419      3.52%     97.24% # Class of executed instruction. (Count)
system.cpu2.exec_context.thread_0.statExecutedInstType::FloatMemWrite       103032      2.76%    100.00% # Class of executed instruction. (Count)
system.cpu2.exec_context.thread_0.statExecutedInstType::IprAccess            0      0.00%    100.00% # Class of executed instruction. (Count)
system.cpu2.exec_context.thread_0.statExecutedInstType::InstPrefetch            0      0.00%    100.00% # Class of executed instruction. (Count)
system.cpu2.exec_context.thread_0.statExecutedInstType::total      3729449                       # Class of executed instruction. (Count)
system.cpu2.interrupts.clk_domain.clock          8000                       # Clock period in ticks (Tick)
system.cpu2.mmu.dtb.rdAccesses                 529855                       # TLB accesses on read requests (Count)
system.cpu2.mmu.dtb.wrAccesses                 351370                       # TLB accesses on write requests (Count)
system.cpu2.mmu.dtb.rdMisses                     1141                       # TLB misses on read requests (Count)
system.cpu2.mmu.dtb.wrMisses                      322                       # TLB misses on write requests (Count)
system.cpu2.mmu.dtb.walker.power_state.pwrStateResidencyTicks::UNDEFINED 9621506222000                       # Cumulative time (in ticks) in various power states (Tick)
system.cpu2.mmu.itb.rdAccesses                      0                       # TLB accesses on read requests (Count)
system.cpu2.mmu.itb.wrAccesses                2629172                       # TLB accesses on write requests (Count)
system.cpu2.mmu.itb.rdMisses                        0                       # TLB misses on read requests (Count)
system.cpu2.mmu.itb.wrMisses                      440                       # TLB misses on write requests (Count)
system.cpu2.mmu.itb.walker.power_state.pwrStateResidencyTicks::UNDEFINED 9621506222000                       # Cumulative time (in ticks) in various power states (Tick)
system.cpu2.power_state.numTransitions            211                       # Number of power state transitions (Count)
system.cpu2.power_state.ticksClkGated::samples          106                       # Distribution of time spent in the clock gated state (Tick)
system.cpu2.power_state.ticksClkGated::mean 89759900490.566040                       # Distribution of time spent in the clock gated state (Tick)
system.cpu2.power_state.ticksClkGated::stdev 923336545504.987671                       # Distribution of time spent in the clock gated state (Tick)
system.cpu2.power_state.ticksClkGated::1000-5e+10          105     99.06%     99.06% # Distribution of time spent in the clock gated state (Tick)
system.cpu2.power_state.ticksClkGated::overflows            1      0.94%    100.00% # Distribution of time spent in the clock gated state (Tick)
system.cpu2.power_state.ticksClkGated::min_value      3684500                       # Distribution of time spent in the clock gated state (Tick)
system.cpu2.power_state.ticksClkGated::max_value 9506407803500                       # Distribution of time spent in the clock gated state (Tick)
system.cpu2.power_state.ticksClkGated::total          106                       # Distribution of time spent in the clock gated state (Tick)
system.cpu2.power_state.pwrStateResidencyTicks::ON 106956770000                       # Cumulative time (in ticks) in various power states (Tick)
system.cpu2.power_state.pwrStateResidencyTicks::CLK_GATED 9514549452000                       # Cumulative time (in ticks) in various power states (Tick)
system.cpu2.thread_0.numInsts                       0                       # Number of Instructions committed (Count)
system.cpu2.thread_0.numOps                         0                       # Number of Ops committed (Count)
system.cpu2.thread_0.numMemRefs                     0                       # Number of Memory References (Count)
system.cpu3.allLatencyDist::bucket_size         10000                       # delay distribution for all (Unspecified)
system.cpu3.allLatencyDist::min_bucket              0                       # delay distribution for all (Unspecified)
system.cpu3.allLatencyDist::max_bucket        1600000                       # delay distribution for all (Unspecified)
system.cpu3.allLatencyDist::samples        2765580255                       # delay distribution for all (Unspecified)
system.cpu3.allLatencyDist::mean         139799.697932                       # delay distribution for all (Unspecified)
system.cpu3.allLatencyDist::stdev        55863.241851                       # delay distribution for all (Unspecified)
system.cpu3.allLatencyDist::underflows              0      0.00%      0.00% # delay distribution for all (Unspecified)
system.cpu3.allLatencyDist               |           0      0.00%      0.00% |           0      0.00%      0.00% |           0      0.00%      0.00% |           0      0.00%      0.00% |           0      0.00%      0.00% |           0      0.00%      0.00% |           0      0.00%      0.00% |           0      0.00%      0.00% |           0      0.00%      0.00% |           0      0.00%      0.00% |  1325162621     47.92%     47.92% |          71      0.00%     47.92% |    57615815      2.08%     50.00% |          59      0.00%     50.00% |         130      0.00%     50.00% |   374502244     13.54%     63.54% |   316886655     11.46%     75.00% |   115231562      4.17%     79.17% |   259271151      9.37%     88.54% |   230462878      8.33%     96.87% |    57615793      2.08%     98.96% |    28807948      1.04%    100.00% |          29      0.00%    100.00% |          41      0.00%    100.00% |          28      0.00%    100.00% |          41      0.00%    100.00% |          63      0.00%    100.00% |          39      0.00%    100.00% |          41      0.00%    100.00% |         102      0.00%    100.00% |          56      0.00%    100.00% |          41      0.00%    100.00% |          33      0.00%    100.00% |          68      0.00%    100.00% |         149      0.00%    100.00% |          57      0.00%    100.00% |          34      0.00%    100.00% |          42      0.00%    100.00% |          28      0.00%    100.00% |          62      0.00%    100.00% |          32      0.00%    100.00% |          39      0.00%    100.00% |          26      0.00%    100.00% |          32      0.00%    100.00% |          31      0.00%    100.00% |          37      0.00%    100.00% |          33      0.00%    100.00% |          38      0.00%    100.00% |          49      0.00%    100.00% |          40      0.00%    100.00% |          51      0.00%    100.00% |          48      0.00%    100.00% |          37      0.00%    100.00% |          44      0.00%    100.00% |          36      0.00%    100.00% |          38      0.00%    100.00% |          34      0.00%    100.00% |          39      0.00%    100.00% |          33      0.00%    100.00% |          31      0.00%    100.00% |          29      0.00%    100.00% |          33      0.00%    100.00% |          28      0.00%    100.00% |          42      0.00%    100.00% |          38      0.00%    100.00% |          29      0.00%    100.00% |          28      0.00%    100.00% |          26      0.00%    100.00% |          37      0.00%    100.00% |          28      0.00%    100.00% |          36      0.00%    100.00% |          23      0.00%    100.00% |          14      0.00%    100.00% |          33      0.00%    100.00% |          27      0.00%    100.00% |          20      0.00%    100.00% |          21      0.00%    100.00% |          23      0.00%    100.00% |          21      0.00%    100.00% |          34      0.00%    100.00% |          29      0.00%    100.00% |          27      0.00%    100.00% |          24      0.00%    100.00% |          18      0.00%    100.00% |          19      0.00%    100.00% |          32      0.00%    100.00% |          16      0.00%    100.00% |          22      0.00%    100.00% |          29      0.00%    100.00% |          20      0.00%    100.00% |          25      0.00%    100.00% |          27      0.00%    100.00% |          33      0.00%    100.00% |          28      0.00%    100.00% |          21      0.00%    100.00% |          20      0.00%    100.00% |          25      0.00%    100.00% |          19      0.00%    100.00% |          22      0.00%    100.00% |          26      0.00%    100.00% |          27      0.00%    100.00% |          13      0.00%    100.00% |          30      0.00%    100.00% |          22      0.00%    100.00% |          34      0.00%    100.00% |          21      0.00%    100.00% |          13      0.00%    100.00% |          14      0.00%    100.00% |          32      0.00%    100.00% |          27      0.00%    100.00% |          34      0.00%    100.00% |          26      0.00%    100.00% |          28      0.00%    100.00% |          28      0.00%    100.00% |          25      0.00%    100.00% |          14      0.00%    100.00% |          33      0.00%    100.00% |          26      0.00%    100.00% |          28      0.00%    100.00% |          24      0.00%    100.00% |          37      0.00%    100.00% |          50      0.00%    100.00% |          50      0.00%    100.00% |          36      0.00%    100.00% |          47      0.00%    100.00% |          40      0.00%    100.00% |          38      0.00%    100.00% |          47      0.00%    100.00% |          62      0.00%    100.00% |          56      0.00%    100.00% |          57      0.00%    100.00% |          42      0.00%    100.00% |          61      0.00%    100.00% |          85      0.00%    100.00% |          48      0.00%    100.00% |          59      0.00%    100.00% |          67      0.00%    100.00% |          52      0.00%    100.00% |          55      0.00%    100.00% |          60      0.00%    100.00% |          59      0.00%    100.00% |          57      0.00%    100.00% |          62      0.00%    100.00% |          64      0.00%    100.00% |          49      0.00%    100.00% |          65      0.00%    100.00% |          50      0.00%    100.00% |          64      0.00%    100.00% |          62      0.00%    100.00% |          66      0.00%    100.00% |          48      0.00%    100.00% |          59      0.00%    100.00% |          53      0.00%    100.00% |          61      0.00%    100.00% |          44      0.00%    100.00% |          58      0.00%    100.00% |          39      0.00%    100.00% |          44      0.00%    100.00% |          51      0.00%    100.00% |          49      0.00%    100.00% |           0      0.00%    100.00% # delay distribution for all (Unspecified)
system.cpu3.allLatencyDist::overflows           17922      0.00%    100.00% # delay distribution for all (Unspecified)
system.cpu3.allLatencyDist::min_value          105000                       # delay distribution for all (Unspecified)
system.cpu3.allLatencyDist::max_value       130966000                       # delay distribution for all (Unspecified)
system.cpu3.allLatencyDist::total          2765580255                       # delay distribution for all (Unspecified)
system.cpu3.loadLatencyDist::bucket_size        10000                       # delay distribution for loads (Unspecified)
system.cpu3.loadLatencyDist::min_bucket             0                       # delay distribution for loads (Unspecified)
system.cpu3.loadLatencyDist::max_bucket       1600000                       # delay distribution for loads (Unspecified)
system.cpu3.loadLatencyDist::samples       2765574649                       # delay distribution for loads (Unspecified)
system.cpu3.loadLatencyDist::mean        139779.691559                       # delay distribution for loads (Unspecified)
system.cpu3.loadLatencyDist::stdev       50509.382264                       # delay distribution for loads (Unspecified)
system.cpu3.loadLatencyDist::underflows             0      0.00%      0.00% # delay distribution for loads (Unspecified)
system.cpu3.loadLatencyDist              |           0      0.00%      0.00% |           0      0.00%      0.00% |           0      0.00%      0.00% |           0      0.00%      0.00% |           0      0.00%      0.00% |           0      0.00%      0.00% |           0      0.00%      0.00% |           0      0.00%      0.00% |           0      0.00%      0.00% |           0      0.00%      0.00% |  1325162621     47.92%     47.92% |          71      0.00%     47.92% |    57615815      2.08%     50.00% |          59      0.00%     50.00% |         130      0.00%     50.00% |   374502244     13.54%     63.54% |   316886655     11.46%     75.00% |   115231562      4.17%     79.17% |   259271151      9.37%     88.54% |   230462878      8.33%     96.87% |    57615793      2.08%     98.96% |    28807948      1.04%    100.00% |          29      0.00%    100.00% |          41      0.00%    100.00% |          27      0.00%    100.00% |          32      0.00%    100.00% |          40      0.00%    100.00% |          31      0.00%    100.00% |          31      0.00%    100.00% |          94      0.00%    100.00% |          49      0.00%    100.00% |          27      0.00%    100.00% |          17      0.00%    100.00% |          48      0.00%    100.00% |         135      0.00%    100.00% |          45      0.00%    100.00% |          17      0.00%    100.00% |          28      0.00%    100.00% |          21      0.00%    100.00% |          48      0.00%    100.00% |          25      0.00%    100.00% |          35      0.00%    100.00% |          20      0.00%    100.00% |          19      0.00%    100.00% |          22      0.00%    100.00% |          27      0.00%    100.00% |          24      0.00%    100.00% |          29      0.00%    100.00% |          38      0.00%    100.00% |          29      0.00%    100.00% |          41      0.00%    100.00% |          38      0.00%    100.00% |          35      0.00%    100.00% |          36      0.00%    100.00% |          30      0.00%    100.00% |          25      0.00%    100.00% |          29      0.00%    100.00% |          30      0.00%    100.00% |          26      0.00%    100.00% |          24      0.00%    100.00% |          20      0.00%    100.00% |          24      0.00%    100.00% |          20      0.00%    100.00% |          35      0.00%    100.00% |          31      0.00%    100.00% |          27      0.00%    100.00% |          23      0.00%    100.00% |          23      0.00%    100.00% |          34      0.00%    100.00% |          25      0.00%    100.00% |          33      0.00%    100.00% |          17      0.00%    100.00% |          12      0.00%    100.00% |          29      0.00%    100.00% |          26      0.00%    100.00% |          17      0.00%    100.00% |          19      0.00%    100.00% |          22      0.00%    100.00% |          18      0.00%    100.00% |          28      0.00%    100.00% |          23      0.00%    100.00% |          22      0.00%    100.00% |          21      0.00%    100.00% |          16      0.00%    100.00% |          14      0.00%    100.00% |          25      0.00%    100.00% |          11      0.00%    100.00% |          18      0.00%    100.00% |          24      0.00%    100.00% |          17      0.00%    100.00% |          22      0.00%    100.00% |          21      0.00%    100.00% |          29      0.00%    100.00% |          26      0.00%    100.00% |          20      0.00%    100.00% |          17      0.00%    100.00% |          18      0.00%    100.00% |          17      0.00%    100.00% |          18      0.00%    100.00% |          23      0.00%    100.00% |          24      0.00%    100.00% |          13      0.00%    100.00% |          24      0.00%    100.00% |          19      0.00%    100.00% |          23      0.00%    100.00% |          20      0.00%    100.00% |          11      0.00%    100.00% |          12      0.00%    100.00% |          30      0.00%    100.00% |          23      0.00%    100.00% |          27      0.00%    100.00% |          24      0.00%    100.00% |          23      0.00%    100.00% |          21      0.00%    100.00% |          19      0.00%    100.00% |           9      0.00%    100.00% |          29      0.00%    100.00% |          18      0.00%    100.00% |          18      0.00%    100.00% |          20      0.00%    100.00% |          31      0.00%    100.00% |          36      0.00%    100.00% |          32      0.00%    100.00% |          23      0.00%    100.00% |          30      0.00%    100.00% |          27      0.00%    100.00% |          22      0.00%    100.00% |          30      0.00%    100.00% |          49      0.00%    100.00% |          33      0.00%    100.00% |          32      0.00%    100.00% |          34      0.00%    100.00% |          45      0.00%    100.00% |          70      0.00%    100.00% |          34      0.00%    100.00% |          49      0.00%    100.00% |          51      0.00%    100.00% |          42      0.00%    100.00% |          45      0.00%    100.00% |          48      0.00%    100.00% |          44      0.00%    100.00% |          42      0.00%    100.00% |          51      0.00%    100.00% |          50      0.00%    100.00% |          38      0.00%    100.00% |          45      0.00%    100.00% |          40      0.00%    100.00% |          47      0.00%    100.00% |          50      0.00%    100.00% |          50      0.00%    100.00% |          38      0.00%    100.00% |          49      0.00%    100.00% |          42      0.00%    100.00% |          55      0.00%    100.00% |          38      0.00%    100.00% |          50      0.00%    100.00% |          30      0.00%    100.00% |          41      0.00%    100.00% |          46      0.00%    100.00% |          41      0.00%    100.00% |           0      0.00%    100.00% # delay distribution for loads (Unspecified)
system.cpu3.loadLatencyDist::overflows          13438      0.00%    100.00% # delay distribution for loads (Unspecified)
system.cpu3.loadLatencyDist::min_value         105000                       # delay distribution for loads (Unspecified)
system.cpu3.loadLatencyDist::max_value      130966000                       # delay distribution for loads (Unspecified)
system.cpu3.loadLatencyDist::total         2765574649                       # delay distribution for loads (Unspecified)
system.cpu3.storeLatencyDist::bucket_size        10000                       # delay distribution for stores (Unspecified)
system.cpu3.storeLatencyDist::min_bucket            0                       # delay distribution for stores (Unspecified)
system.cpu3.storeLatencyDist::max_bucket      1600000                       # delay distribution for stores (Unspecified)
system.cpu3.storeLatencyDist::samples            5606                       # delay distribution for stores (Unspecified)
system.cpu3.storeLatencyDist::mean       10009425.080271                       # delay distribution for stores (Unspecified)
system.cpu3.storeLatencyDist::stdev      13549030.960974                       # delay distribution for stores (Unspecified)
system.cpu3.storeLatencyDist::underflows            0      0.00%      0.00% # delay distribution for stores (Unspecified)
system.cpu3.storeLatencyDist             |           0      0.00%      0.00% |           0      0.00%      0.00% |           0      0.00%      0.00% |           0      0.00%      0.00% |           0      0.00%      0.00% |           0      0.00%      0.00% |           0      0.00%      0.00% |           0      0.00%      0.00% |           0      0.00%      0.00% |           0      0.00%      0.00% |           0      0.00%      0.00% |           0      0.00%      0.00% |           0      0.00%      0.00% |           0      0.00%      0.00% |           0      0.00%      0.00% |           0      0.00%      0.00% |           0      0.00%      0.00% |           0      0.00%      0.00% |           0      0.00%      0.00% |           0      0.00%      0.00% |           0      0.00%      0.00% |           0      0.00%      0.00% |           0      0.00%      0.00% |           0      0.00%      0.00% |           1      0.02%      0.02% |           9      0.16%      0.18% |          23      0.41%      0.59% |           8      0.14%      0.73% |          10      0.18%      0.91% |           8      0.14%      1.05% |           7      0.12%      1.18% |          14      0.25%      1.43% |          16      0.29%      1.71% |          20      0.36%      2.07% |          14      0.25%      2.32% |          12      0.21%      2.53% |          17      0.30%      2.84% |          14      0.25%      3.09% |           7      0.12%      3.21% |          14      0.25%      3.46% |           7      0.12%      3.59% |           4      0.07%      3.66% |           6      0.11%      3.76% |          13      0.23%      4.00% |           9      0.16%      4.16% |          10      0.18%      4.33% |           9      0.16%      4.50% |           9      0.16%      4.66% |          11      0.20%      4.85% |          11      0.20%      5.05% |          10      0.18%      5.23% |          10      0.18%      5.40% |           2      0.04%      5.44% |           8      0.14%      5.58% |           6      0.11%      5.69% |          13      0.23%      5.92% |           5      0.09%      6.01% |           9      0.16%      6.17% |           7      0.12%      6.30% |           7      0.12%      6.42% |           9      0.16%      6.58% |           9      0.16%      6.74% |           8      0.14%      6.89% |           7      0.12%      7.01% |           7      0.12%      7.14% |           2      0.04%      7.17% |           5      0.09%      7.26% |           3      0.05%      7.31% |           3      0.05%      7.37% |           3      0.05%      7.42% |           3      0.05%      7.47% |           6      0.11%      7.58% |           2      0.04%      7.62% |           4      0.07%      7.69% |           1      0.02%      7.71% |           3      0.05%      7.76% |           2      0.04%      7.80% |           1      0.02%      7.81% |           3      0.05%      7.87% |           6      0.11%      7.97% |           6      0.11%      8.08% |           5      0.09%      8.17% |           3      0.05%      8.22% |           2      0.04%      8.26% |           5      0.09%      8.35% |           7      0.12%      8.47% |           5      0.09%      8.56% |           4      0.07%      8.63% |           5      0.09%      8.72% |           3      0.05%      8.78% |           3      0.05%      8.83% |           6      0.11%      8.94% |           4      0.07%      9.01% |           2      0.04%      9.04% |           1      0.02%      9.06% |           3      0.05%      9.12% |           7      0.12%      9.24% |           2      0.04%      9.28% |           4      0.07%      9.35% |           3      0.05%      9.40% |           3      0.05%      9.45% |           0      0.00%      9.45% |           6      0.11%      9.56% |           3      0.05%      9.61% |          11      0.20%      9.81% |           1      0.02%      9.83% |           2      0.04%      9.86% |           2      0.04%      9.90% |           2      0.04%      9.94% |           4      0.07%     10.01% |           7      0.12%     10.13% |           2      0.04%     10.17% |           5      0.09%     10.26% |           7      0.12%     10.38% |           6      0.11%     10.49% |           5      0.09%     10.58% |           4      0.07%     10.65% |           8      0.14%     10.79% |          10      0.18%     10.97% |           4      0.07%     11.04% |           6      0.11%     11.15% |          14      0.25%     11.40% |          18      0.32%     11.72% |          13      0.23%     11.95% |          17      0.30%     12.25% |          13      0.23%     12.49% |          16      0.29%     12.77% |          17      0.30%     13.08% |          13      0.23%     13.31% |          23      0.41%     13.72% |          25      0.45%     14.16% |           8      0.14%     14.31% |          16      0.29%     14.59% |          15      0.27%     14.86% |          14      0.25%     15.11% |          10      0.18%     15.29% |          16      0.29%     15.57% |          10      0.18%     15.75% |          10      0.18%     15.93% |          12      0.21%     16.14% |          15      0.27%     16.41% |          15      0.27%     16.68% |          11      0.20%     16.87% |          14      0.25%     17.12% |          11      0.20%     17.32% |          20      0.36%     17.68% |          10      0.18%     17.86% |          17      0.30%     18.16% |          12      0.21%     18.37% |          16      0.29%     18.66% |          10      0.18%     18.84% |          10      0.18%     19.02% |          11      0.20%     19.21% |           6      0.11%     19.32% |           6      0.11%     19.43% |           8      0.14%     19.57% |           9      0.16%     19.73% |           3      0.05%     19.78% |           5      0.09%     19.87% |           8      0.14%     20.01% |           0      0.00%     20.01% # delay distribution for stores (Unspecified)
system.cpu3.storeLatencyDist::overflows          4484     79.99%    100.00% # delay distribution for stores (Unspecified)
system.cpu3.storeLatencyDist::min_value        249000                       # delay distribution for stores (Unspecified)
system.cpu3.storeLatencyDist::max_value     116012000                       # delay distribution for stores (Unspecified)
system.cpu3.storeLatencyDist::total              5606                       # delay distribution for stores (Unspecified)
system.cpu3.initToCoalesceLatency::bucket_size        10000                       # Ticks from vmem inst initiateAcc to coalescer issue (Unspecified)
system.cpu3.initToCoalesceLatency::min_bucket            0                       # Ticks from vmem inst initiateAcc to coalescer issue (Unspecified)
system.cpu3.initToCoalesceLatency::max_bucket      1600000                       # Ticks from vmem inst initiateAcc to coalescer issue (Unspecified)
system.cpu3.initToCoalesceLatency::samples            0                       # Ticks from vmem inst initiateAcc to coalescer issue (Unspecified)
system.cpu3.initToCoalesceLatency::mean           nan                       # Ticks from vmem inst initiateAcc to coalescer issue (Unspecified)
system.cpu3.initToCoalesceLatency::stdev          nan                       # Ticks from vmem inst initiateAcc to coalescer issue (Unspecified)
system.cpu3.initToCoalesceLatency::underflows            0                       # Ticks from vmem inst initiateAcc to coalescer issue (Unspecified)
system.cpu3.initToCoalesceLatency        |           0                       |           0                       |           0                       |           0                       |           0                       |           0                       |           0                       |           0                       |           0                       |           0                       |           0                       |           0                       |           0                       |           0                       |           0                       |           0                       |           0                       |           0                       |           0                       |           0                       |           0                       |           0                       |           0                       |           0                       |           0                       |           0                       |           0                       |           0                       |           0                       |           0                       |           0                       |           0                       |           0                       |           0                       |           0                       |           0                       |           0                       |           0                       |           0                       |           0                       |           0                       |           0                       |           0                       |           0                       |           0                       |           0                       |           0                       |           0                       |           0                       |           0                       |           0                       |           0                       |           0                       |           0                       |           0                       |           0                       |           0                       |           0                       |           0                       |           0                       |           0                       |           0                       |           0                       |           0                       |           0                       |           0                       |           0                       |           0                       |           0                       |           0                       |           0                       |           0                       |           0                       |           0                       |           0                       |           0                       |           0                       |           0                       |           0                       |           0                       |           0                       |           0                       |           0                       |           0                       |           0                       |           0                       |           0                       |           0                       |           0                       |           0                       |           0                       |           0                       |           0                       |           0                       |           0                       |           0                       |           0                       |           0                       |           0                       |           0                       |           0                       |           0                       |           0                       |           0                       |           0                       |           0                       |           0                       |           0                       |           0                       |           0                       |           0                       |           0                       |           0                       |           0                       |           0                       |           0                       |           0                       |           0                       |           0                       |           0                       |           0                       |           0                       |           0                       |           0                       |           0                       |           0                       |           0                       |           0                       |           0                       |           0                       |           0                       |           0                       |           0                       |           0                       |           0                       |           0                       |           0                       |           0                       |           0                       |           0                       |           0                       |           0                       |           0                       |           0                       |           0                       |           0                       |           0                       |           0                       |           0                       |           0                       |           0                       |           0                       |           0                       |           0                       |           0                       |           0                       |           0                       |           0                       |           0                       |           0                       |           0                       # Ticks from vmem inst initiateAcc to coalescer issue (Unspecified)
system.cpu3.initToCoalesceLatency::overflows            0                       # Ticks from vmem inst initiateAcc to coalescer issue (Unspecified)
system.cpu3.initToCoalesceLatency::min_value            0                       # Ticks from vmem inst initiateAcc to coalescer issue (Unspecified)
system.cpu3.initToCoalesceLatency::max_value            0                       # Ticks from vmem inst initiateAcc to coalescer issue (Unspecified)
system.cpu3.initToCoalesceLatency::total            0                       # Ticks from vmem inst initiateAcc to coalescer issue (Unspecified)
system.cpu3.rubyNetworkLatency::bucket_size        10000                       # Ticks from coalescer issue to coalescer hit callback (Unspecified)
system.cpu3.rubyNetworkLatency::min_bucket            0                       # Ticks from coalescer issue to coalescer hit callback (Unspecified)
system.cpu3.rubyNetworkLatency::max_bucket      1600000                       # Ticks from coalescer issue to coalescer hit callback (Unspecified)
system.cpu3.rubyNetworkLatency::samples             0                       # Ticks from coalescer issue to coalescer hit callback (Unspecified)
system.cpu3.rubyNetworkLatency::mean              nan                       # Ticks from coalescer issue to coalescer hit callback (Unspecified)
system.cpu3.rubyNetworkLatency::stdev             nan                       # Ticks from coalescer issue to coalescer hit callback (Unspecified)
system.cpu3.rubyNetworkLatency::underflows            0                       # Ticks from coalescer issue to coalescer hit callback (Unspecified)
[...]
system.cpu3.cacheBlockRoundTrip7::overflows            0                       # Coalsr-to-coalsr time for the Nth cache block in an inst (Unspecified)
system.cpu3.cacheBlockRoundTrip7::min_value            0                       # Coalsr-to-coalsr time for the Nth cache block in an inst (Unspecified)
system.cpu3.cacheBlockRoundTrip7::max_value            0                       # Coalsr-to-coalsr time for the Nth cache block in an inst (Unspecified)
system.cpu3.cacheBlockRoundTrip7::total             0                       # Coalsr-to-coalsr time for the Nth cache block in an inst (Unspecified)
system.cpu3.cacheBlockRoundTrip8::bucket_size        10000                       # Coalsr-to-coalsr time for the Nth cache block in an inst (Unspecified)
system.cpu3.cacheBlockRoundTrip8::min_bucket            0                       # Coalsr-to-coalsr time for the Nth cache block in an inst (Unspecified)
system.cpu3.cacheBlockRoundTrip8::max_bucket      1600000                       # Coalsr-to-coalsr time for the Nth cache block in an inst (Unspecified)
system.cpu3.cacheBlockRoundTrip8::samples            0                       # Coalsr-to-coalsr time for the Nth cache block in an inst (Unspecified)
system.cpu3.cacheBlockRoundTrip8::mean            nan                       # Coalsr-to-coalsr time for the Nth cache block in an inst (Unspecified)
system.cpu3.cacheBlockRoundTrip8::stdev           nan                       # Coalsr-to-coalsr time for the Nth cache block in an inst (Unspecified)
system.cpu3.cacheBlockRoundTrip8::underflows            0                       # Coalsr-to-coalsr time for the Nth cache block in an inst (Unspecified)
system.cpu3.cacheBlockRoundTrip8         |           0                       |           0                       |           0                       |           0                       |           0                       |           0                       |           0                       |           0                       |           0                       |           0                       |           0                       |           0                       |           0                       |           0                       |           0                       |           0                       |           0                       |           0                       |           0                       |           0                       |           0                       |           0                       |           0                       |           0                       |           0                       |           0                       |           0                       |           0                       |           0                       |           0                       |           0                       |           0                       |           0                       |           0                       |           0                       |           0                       |           0                       |           0                       |           0                       |           0                       |           0                       |           0                       |           0                       |           0                       |           0                       |           0                       |           0                       |           0                       |           0                       |           0                       |           0                       |           0                       |           0                       |           0                       |           0                       |           0                       |           0                       |           0                       |           0                       |           0                       |           0                       |           0                       |           0                       |           0                       |           0                       |           0                       |           0                       |           0                       |           0                       |           0                       |           0                       |           0                       |           0                       |           0                       |           0                       |           0                       |           0                       |           0                       |           0                       |           0                       |           0                       |           0                       |           0                       |           0                       |           0                       |           0                       |           0                       |           0                       |           0                       |           0                       |           0                       |           0                       |           0                       |           0                       |           0                       |           0                       |           0                       |           0                       |           0                       |           0                       |           0                       |           0                       |           0                       |           0                       |           0                       |           0                       |           0                       |           0                       |           0                       |           0                       |           0                       |           0                       |           0                       |           0                       |           0                       |           0                       |           0                       |           0                       |           0                       |           0                       |           0                       |           0                       |           0                       |           0                       |           0                       |           0                       |           0                       |           0                       |           0                       |           0                       |           0                       |           0                       |           0                       |           0                       |           0                       |           0                       |           0                       |           0                       |           0                       |           0                       |           0                       |           0                       |           0                       |           0                       |           0                       |           0                       |           0                       |           0                       |           0                       |           0                       |           0                       |           0                       |           0                       |           0                       |           0                       |           0                       |           0                       |           0                       |           0                       |           0                       |           0                       # Coalsr-to-coalsr time for the Nth cache block in an inst (Unspecified)
system.cpu3.cacheBlockRoundTrip8::overflows            0                       # Coalsr-to-coalsr time for the Nth cache block in an inst (Unspecified)
system.cpu3.cacheBlockRoundTrip8::min_value            0                       # Coalsr-to-coalsr time for the Nth cache block in an inst (Unspecified)
system.cpu3.cacheBlockRoundTrip8::max_value            0                       # Coalsr-to-coalsr time for the Nth cache block in an inst (Unspecified)
system.cpu3.cacheBlockRoundTrip8::total             0                       # Coalsr-to-coalsr time for the Nth cache block in an inst (Unspecified)
system.cpu3.cacheBlockRoundTrip9::bucket_size        10000                       # Coalsr-to-coalsr time for the Nth cache block in an inst (Unspecified)
system.cpu3.cacheBlockRoundTrip9::min_bucket            0                       # Coalsr-to-coalsr time for the Nth cache block in an inst (Unspecified)
system.cpu3.cacheBlockRoundTrip9::max_bucket      1600000                       # Coalsr-to-coalsr time for the Nth cache block in an inst (Unspecified)
system.cpu3.cacheBlockRoundTrip9::samples            0                       # Coalsr-to-coalsr time for the Nth cache block in an inst (Unspecified)
system.cpu3.cacheBlockRoundTrip9::mean            nan                       # Coalsr-to-coalsr time for the Nth cache block in an inst (Unspecified)
system.cpu3.cacheBlockRoundTrip9::stdev           nan                       # Coalsr-to-coalsr time for the Nth cache block in an inst (Unspecified)
system.cpu3.cacheBlockRoundTrip9::underflows            0                       # Coalsr-to-coalsr time for the Nth cache block in an inst (Unspecified)
system.cpu3.cacheBlockRoundTrip9         |           0                       |           0                       |           0                       |           0                       |           0                       |           0                       |           0                       |           0                       |           0                       |           0                       |           0                       |           0                       |           0                       |           0                       |           0                       |           0                       |           0                       |           0                       |           0                       |           0                       |           0                       |           0                       |           0                       |           0                       |           0                       |           0                       |           0                       |           0                       |           0                       |           0                       |           0                       |           0                       |           0                       |           0                       |           0                       |           0                       |           0                       |           0                       |           0                       |           0                       |           0                       |           0                       |           0                       |           0                       |           0                       |           0                       |           0                       |           0                       |           0                       |           0                       |           0                       |           0                       |           0                       |           0                       |           0                       |           0                       |           0                       |           0                       |           0                       |           0                       |           0                       |           0                       |           0                       |           0                       |           0                       |           0                       |           0                       |           0                       |           0                       |           0                       |           0                       |           0                       |           0                       |           0                       |           0                       |           0                       |           0                       |           0                       |           0                       |           0                       |           0                       |           0                       |           0                       |           0                       |           0                       |           0                       |           0                       |           0                       |           0                       |           0                       |           0                       |           0                       |           0                       |           0                       |           0                       |           0                       |           0                       |           0                       |           0                       |           0                       |           0                       |           0                       |           0                       |           0                       |           0                       |           0                       |           0                       |           0                       |           0                       |           0                       |           0                       |           0                       |           0                       |           0                       |           0                       |           0                       |           0                       |           0                       |           0                       |           0                       |           0                       |           0                       |           0                       |           0                       |           0                       |           0                       |           0                       |           0                       |           0                       |           0                       |           0                       |           0                       |           0                       |           0                       |           0                       |           0                       |           0                       |           0                       |           0                       |           0                       |           0                       |           0                       |           0                       |           0                       |           0                       |           0                       |           0                       |           0                       |           0                       |           0                       |           0                       |           0                       |           0                       |           0                       |           0                       |           0                       |           0                       |           0                       |           0                       |           0                       |           0                       # Coalsr-to-coalsr time for the Nth cache block in an inst (Unspecified)
system.cpu3.cacheBlockRoundTrip9::overflows            0                       # Coalsr-to-coalsr time for the Nth cache block in an inst (Unspecified)
system.cpu3.cacheBlockRoundTrip9::min_value            0                       # Coalsr-to-coalsr time for the Nth cache block in an inst (Unspecified)
system.cpu3.cacheBlockRoundTrip9::max_value            0                       # Coalsr-to-coalsr time for the Nth cache block in an inst (Unspecified)
system.cpu3.cacheBlockRoundTrip9::total             0                       # Coalsr-to-coalsr time for the Nth cache block in an inst (Unspecified)

---------- End Simulation Statistics   ----------
