
---------- Begin Simulation Statistics ----------
simSeconds                                   2.909967                       # Number of seconds simulated (Second)
simTicks                                 2909966895500                       # Number of ticks simulated (Tick)
finalTick                                2909966895500                       # Number of ticks from beginning of simulation (restored from checkpoints and never reset) (Tick)
simFreq                                  1000000000000                       # The number of ticks per simulated second ((Tick/Second))
hostSeconds                                   4968.18                       # Real time elapsed on the host (Second)
hostTickRate                                585720341                       # The number of ticks simulated per host second (ticks/s) ((Tick/Second))
hostMemory                                   21389768                       # Number of bytes of host memory used (Byte)
simInsts                                   1546803134                       # Number of instructions simulated (Count)
simOps                                     3485961464                       # Number of ops (including micro ops) simulated (Count)
hostInstRate                                   311342                       # Simulator instruction rate (inst/s) ((Count/Second))
hostOpRate                                     701657                       # Simulator op (including micro ops) rate (op/s) ((Count/Second))
system.work_item_type0::samples                     1                       # Run time stat forwork_item_type0 (Unspecified)
system.work_item_type0::mean             241529702500                       # Run time stat forwork_item_type0 (Unspecified)
system.work_item_type0::gmean            241529702499.999695                       # Run time stat forwork_item_type0 (Unspecified)
system.work_item_type0::stdev                     nan                       # Run time stat forwork_item_type0 (Unspecified)
system.work_item_type0::0-1.71799e+10               0      0.00%      0.00% # Run time stat forwork_item_type0 (Unspecified)
system.work_item_type0::1.71799e+10-3.43597e+10            0      0.00%      0.00% # Run time stat forwork_item_type0 (Unspecified)
system.work_item_type0::3.43597e+10-5.15396e+10            0      0.00%      0.00% # Run time stat forwork_item_type0 (Unspecified)
system.work_item_type0::5.15396e+10-6.87195e+10            0      0.00%      0.00% # Run time stat forwork_item_type0 (Unspecified)
system.work_item_type0::6.87195e+10-8.58993e+10            0      0.00%      0.00% # Run time stat forwork_item_type0 (Unspecified)
system.work_item_type0::8.58993e+10-1.03079e+11            0      0.00%      0.00% # Run time stat forwork_item_type0 (Unspecified)
system.work_item_type0::1.03079e+11-1.20259e+11            0      0.00%      0.00% # Run time stat forwork_item_type0 (Unspecified)
system.work_item_type0::1.20259e+11-1.37439e+11            0      0.00%      0.00% # Run time stat forwork_item_type0 (Unspecified)
system.work_item_type0::1.37439e+11-1.54619e+11            0      0.00%      0.00% # Run time stat forwork_item_type0 (Unspecified)
system.work_item_type0::1.54619e+11-1.71799e+11            0      0.00%      0.00% # Run time stat forwork_item_type0 (Unspecified)
system.work_item_type0::1.71799e+11-1.88979e+11            0      0.00%      0.00% # Run time stat forwork_item_type0 (Unspecified)
system.work_item_type0::1.88979e+11-2.06158e+11            0      0.00%      0.00% # Run time stat forwork_item_type0 (Unspecified)
system.work_item_type0::2.06158e+11-2.23338e+11            0      0.00%      0.00% # Run time stat forwork_item_type0 (Unspecified)
system.work_item_type0::2.23338e+11-2.40518e+11            0      0.00%      0.00% # Run time stat forwork_item_type0 (Unspecified)
system.work_item_type0::2.40518e+11-2.57698e+11            1    100.00%    100.00% # Run time stat forwork_item_type0 (Unspecified)
system.work_item_type0::2.57698e+11-2.74878e+11            0      0.00%    100.00% # Run time stat forwork_item_type0 (Unspecified)
system.work_item_type0::2.74878e+11-2.92058e+11            0      0.00%    100.00% # Run time stat forwork_item_type0 (Unspecified)
system.work_item_type0::2.92058e+11-3.09238e+11            0      0.00%    100.00% # Run time stat forwork_item_type0 (Unspecified)
system.work_item_type0::3.09238e+11-3.26418e+11            0      0.00%    100.00% # Run time stat forwork_item_type0 (Unspecified)
system.work_item_type0::3.26418e+11-3.43597e+11            0      0.00%    100.00% # Run time stat forwork_item_type0 (Unspecified)
system.work_item_type0::total                       1                       # Run time stat forwork_item_type0 (Unspecified)
system.clk_domain.clock                          1000                       # Clock period in ticks (Tick)
system.cpu0.numCycles                      5819933791                       # Number of cpu cycles simulated (Cycle)
system.cpu0.cpi                              3.745978                       # CPI: cycles per instruction (core level) ((Cycle/Count))
system.cpu0.ipc                              0.266953                       # IPC: instructions per cycle (core level) ((Count/Cycle))
system.cpu0.numWorkItemsStarted                     1                       # Number of work items this cpu started (Count)
system.cpu0.numWorkItemsCompleted                   1                       # Number of work items this cpu completed (Count)
system.cpu0.clk_domain.clock                      500                       # Clock period in ticks (Tick)
system.cpu0.clk_domain.voltage_domain.voltage            1                       # Voltage in Volts (Volt)
system.cpu0.commitStats0.numInsts          1553648654                       # Number of instructions committed (thread level) (Count)
system.cpu0.commitStats0.numOps            3487876671                       # Number of ops (including micro ops) committed (thread level) (Count)
system.cpu0.commitStats0.numInstsNotNOP             0                       # Number of instructions committed excluding NOPs or prefetches (Count)
system.cpu0.commitStats0.numOpsNotNOP               0                       # Number of Ops (including micro ops) Simulated (Count)
system.cpu0.commitStats0.cpi                 3.745978                       # CPI: cycles per instruction (thread level) ((Cycle/Count))
system.cpu0.commitStats0.ipc                 0.266953                       # IPC: instructions per cycle (thread level) ((Count/Cycle))
system.cpu0.commitStats0.numMemRefs                 0                       # Number of memory references committed (Count)
system.cpu0.commitStats0.numFpInsts          46781390                       # Number of float instructions (Count)
system.cpu0.commitStats0.numIntInsts       3246648208                       # Number of integer instructions (Count)
system.cpu0.commitStats0.numLoadInsts       315542457                       # Number of load instructions (Count)
system.cpu0.commitStats0.numStoreInsts      307687576                       # Number of store instructions (Count)
system.cpu0.commitStats0.numVecInsts                0                       # Number of vector instructions (Count)
system.cpu0.commitStats0.committedInstType::No_OpClass     72958973      2.09%      2.09% # Class of committed instruction. (Count)
system.cpu0.commitStats0.committedInstType::IntAlu   2752305120     78.91%     81.00% # Class of committed instruction. (Count)
system.cpu0.commitStats0.committedInstType::IntMult     12347756      0.35%     81.36% # Class of committed instruction. (Count)
system.cpu0.commitStats0.committedInstType::IntDiv        71421      0.00%     81.36% # Class of committed instruction. (Count)
system.cpu0.commitStats0.committedInstType::FloatAdd      2303007      0.07%     81.42% # Class of committed instruction. (Count)
system.cpu0.commitStats0.committedInstType::FloatCmp           72      0.00%     81.42% # Class of committed instruction. (Count)
system.cpu0.commitStats0.committedInstType::FloatCvt         7280      0.00%     81.42% # Class of committed instruction. (Count)
system.cpu0.commitStats0.committedInstType::FloatMult           24      0.00%     81.42% # Class of committed instruction. (Count)
system.cpu0.commitStats0.committedInstType::FloatMultAcc            0      0.00%     81.42% # Class of committed instruction. (Count)
system.cpu0.commitStats0.committedInstType::FloatDiv           24      0.00%     81.42% # Class of committed instruction. (Count)
system.cpu0.commitStats0.committedInstType::FloatMisc            0      0.00%     81.42% # Class of committed instruction. (Count)
system.cpu0.commitStats0.committedInstType::FloatSqrt            0      0.00%     81.42% # Class of committed instruction. (Count)
system.cpu0.commitStats0.committedInstType::SimdAdd        19432      0.00%     81.43% # Class of committed instruction. (Count)
system.cpu0.commitStats0.committedInstType::SimdAddAcc            0      0.00%     81.43% # Class of committed instruction. (Count)
system.cpu0.commitStats0.committedInstType::SimdAlu      6021592      0.17%     81.60% # Class of committed instruction. (Count)
system.cpu0.commitStats0.committedInstType::SimdCmp       285840      0.01%     81.61% # Class of committed instruction. (Count)
system.cpu0.commitStats0.committedInstType::SimdCvt      5267136      0.15%     81.76% # Class of committed instruction. (Count)
system.cpu0.commitStats0.committedInstType::SimdMisc     11319047      0.32%     82.08% # Class of committed instruction. (Count)
system.cpu0.commitStats0.committedInstType::SimdMult            0      0.00%     82.08% # Class of committed instruction. (Count)
system.cpu0.commitStats0.committedInstType::SimdMultAcc            0      0.00%     82.08% # Class of committed instruction. (Count)
system.cpu0.commitStats0.committedInstType::SimdMatMultAcc            0      0.00%     82.08% # Class of committed instruction. (Count)
system.cpu0.commitStats0.committedInstType::SimdShift         9108      0.00%     82.08% # Class of committed instruction. (Count)
system.cpu0.commitStats0.committedInstType::SimdShiftAcc            0      0.00%     82.08% # Class of committed instruction. (Count)
system.cpu0.commitStats0.committedInstType::SimdDiv            0      0.00%     82.08% # Class of committed instruction. (Count)
system.cpu0.commitStats0.committedInstType::SimdSqrt            0      0.00%     82.08% # Class of committed instruction. (Count)
system.cpu0.commitStats0.committedInstType::SimdFloatAdd        92616      0.00%     82.08% # Class of committed instruction. (Count)
system.cpu0.commitStats0.committedInstType::SimdFloatAlu            0      0.00%     82.08% # Class of committed instruction. (Count)
system.cpu0.commitStats0.committedInstType::SimdFloatCmp            0      0.00%     82.08% # Class of committed instruction. (Count)
system.cpu0.commitStats0.committedInstType::SimdFloatCvt      1452934      0.04%     82.13% # Class of committed instruction. (Count)
system.cpu0.commitStats0.committedInstType::SimdFloatDiv            5      0.00%     82.13% # Class of committed instruction. (Count)
system.cpu0.commitStats0.committedInstType::SimdFloatMisc            0      0.00%     82.13% # Class of committed instruction. (Count)
system.cpu0.commitStats0.committedInstType::SimdFloatMult       185251      0.01%     82.13% # Class of committed instruction. (Count)
system.cpu0.commitStats0.committedInstType::SimdFloatMultAcc            0      0.00%     82.13% # Class of committed instruction. (Count)
system.cpu0.commitStats0.committedInstType::SimdFloatMatMultAcc            0      0.00%     82.13% # Class of committed instruction. (Count)
system.cpu0.commitStats0.committedInstType::SimdFloatSqrt            0      0.00%     82.13% # Class of committed instruction. (Count)
system.cpu0.commitStats0.committedInstType::SimdReduceAdd            0      0.00%     82.13% # Class of committed instruction. (Count)
system.cpu0.commitStats0.committedInstType::SimdReduceAlu            0      0.00%     82.13% # Class of committed instruction. (Count)
system.cpu0.commitStats0.committedInstType::SimdReduceCmp            0      0.00%     82.13% # Class of committed instruction. (Count)
system.cpu0.commitStats0.committedInstType::SimdFloatReduceAdd            0      0.00%     82.13% # Class of committed instruction. (Count)
system.cpu0.commitStats0.committedInstType::SimdFloatReduceCmp            0      0.00%     82.13% # Class of committed instruction. (Count)
system.cpu0.commitStats0.committedInstType::SimdAes            0      0.00%     82.13% # Class of committed instruction. (Count)
system.cpu0.commitStats0.committedInstType::SimdAesMix            0      0.00%     82.13% # Class of committed instruction. (Count)
system.cpu0.commitStats0.committedInstType::SimdSha1Hash            0      0.00%     82.13% # Class of committed instruction. (Count)
system.cpu0.commitStats0.committedInstType::SimdSha1Hash2            0      0.00%     82.13% # Class of committed instruction. (Count)
system.cpu0.commitStats0.committedInstType::SimdSha256Hash            0      0.00%     82.13% # Class of committed instruction. (Count)
system.cpu0.commitStats0.committedInstType::SimdSha256Hash2            0      0.00%     82.13% # Class of committed instruction. (Count)
system.cpu0.commitStats0.committedInstType::SimdShaSigma2            0      0.00%     82.13% # Class of committed instruction. (Count)
system.cpu0.commitStats0.committedInstType::SimdShaSigma3            0      0.00%     82.13% # Class of committed instruction. (Count)
system.cpu0.commitStats0.committedInstType::SimdPredAlu            0      0.00%     82.13% # Class of committed instruction. (Count)
system.cpu0.commitStats0.committedInstType::Matrix            0      0.00%     82.13% # Class of committed instruction. (Count)
system.cpu0.commitStats0.committedInstType::MatrixMov            0      0.00%     82.13% # Class of committed instruction. (Count)
system.cpu0.commitStats0.committedInstType::MatrixOP            0      0.00%     82.13% # Class of committed instruction. (Count)
system.cpu0.commitStats0.committedInstType::MemRead    306513927      8.79%     90.92% # Class of committed instruction. (Count)
system.cpu0.commitStats0.committedInstType::MemWrite    299790820      8.60%     99.51% # Class of committed instruction. (Count)
system.cpu0.commitStats0.committedInstType::FloatMemRead      9028530      0.26%     99.77% # Class of committed instruction. (Count)
system.cpu0.commitStats0.committedInstType::FloatMemWrite      7896756      0.23%    100.00% # Class of committed instruction. (Count)
system.cpu0.commitStats0.committedInstType::IprAccess            0      0.00%    100.00% # Class of committed instruction. (Count)
system.cpu0.commitStats0.committedInstType::InstPrefetch            0      0.00%    100.00% # Class of committed instruction. (Count)
system.cpu0.commitStats0.committedInstType::VectorUnitStrideLoad            0      0.00%    100.00% # Class of committed instruction. (Count)
system.cpu0.commitStats0.committedInstType::VectorUnitStrideStore            0      0.00%    100.00% # Class of committed instruction. (Count)
system.cpu0.commitStats0.committedInstType::VectorUnitStrideMaskLoad            0      0.00%    100.00% # Class of committed instruction. (Count)
system.cpu0.commitStats0.committedInstType::VectorUnitStrideMaskStore            0      0.00%    100.00% # Class of committed instruction. (Count)
system.cpu0.commitStats0.committedInstType::VectorStridedLoad            0      0.00%    100.00% # Class of committed instruction. (Count)
system.cpu0.commitStats0.committedInstType::VectorStridedStore            0      0.00%    100.00% # Class of committed instruction. (Count)
system.cpu0.commitStats0.committedInstType::VectorIndexedLoad            0      0.00%    100.00% # Class of committed instruction. (Count)
system.cpu0.commitStats0.committedInstType::VectorIndexedStore            0      0.00%    100.00% # Class of committed instruction. (Count)
system.cpu0.commitStats0.committedInstType::VectorUnitStrideFaultOnlyFirstLoad            0      0.00%    100.00% # Class of committed instruction. (Count)
system.cpu0.commitStats0.committedInstType::VectorWholeRegisterLoad            0      0.00%    100.00% # Class of committed instruction. (Count)
system.cpu0.commitStats0.committedInstType::VectorWholeRegisterStore            0      0.00%    100.00% # Class of committed instruction. (Count)
system.cpu0.commitStats0.committedInstType::VectorIntegerArith            0      0.00%    100.00% # Class of committed instruction. (Count)
system.cpu0.commitStats0.committedInstType::VectorFloatArith            0      0.00%    100.00% # Class of committed instruction. (Count)
system.cpu0.commitStats0.committedInstType::VectorFloatConvert            0      0.00%    100.00% # Class of committed instruction. (Count)
system.cpu0.commitStats0.committedInstType::VectorIntegerReduce            0      0.00%    100.00% # Class of committed instruction. (Count)
system.cpu0.commitStats0.committedInstType::VectorFloatReduce            0      0.00%    100.00% # Class of committed instruction. (Count)
system.cpu0.commitStats0.committedInstType::VectorMisc            0      0.00%    100.00% # Class of committed instruction. (Count)
system.cpu0.commitStats0.committedInstType::VectorIntegerExtension            0      0.00%    100.00% # Class of committed instruction. (Count)
system.cpu0.commitStats0.committedInstType::VectorConfig            0      0.00%    100.00% # Class of committed instruction. (Count)
system.cpu0.commitStats0.committedInstType::total   3487876671                       # Class of committed instruction. (Count)
system.cpu0.commitStats0.committedControl::IsControl    519251228                       # Class of control type instructions committed (Count)
system.cpu0.commitStats0.committedControl::IsDirectControl    465215867                       # Class of control type instructions committed (Count)
system.cpu0.commitStats0.committedControl::IsIndirectControl     54033921                       # Class of control type instructions committed (Count)
system.cpu0.commitStats0.committedControl::IsCondControl    405391489                       # Class of control type instructions committed (Count)
system.cpu0.commitStats0.committedControl::IsUncondControl    113858299                       # Class of control type instructions committed (Count)
system.cpu0.commitStats0.committedControl::IsCall     30104320                       # Class of control type instructions committed (Count)
system.cpu0.commitStats0.committedControl::IsReturn     30104302                       # Class of control type instructions committed (Count)
system.cpu0.exec_context.thread_0.numMatAluAccesses            0                       # Number of matrix alu accesses (Count)
system.cpu0.exec_context.thread_0.numCallsReturns     60208622                       # Number of times a function call or return occured (Count)
system.cpu0.exec_context.thread_0.numMatInsts            0                       # Number of matrix instructions (Count)
system.cpu0.exec_context.thread_0.numIdleCycles 8374128.001997                       # Number of idle cycles (Cycle)
system.cpu0.exec_context.thread_0.numBusyCycles 5811559662.998003                       # Number of busy cycles (Cycle)
system.cpu0.exec_context.thread_0.notIdleFraction     0.998561                       # Percentage of non-idle cycles (Ratio)
system.cpu0.exec_context.thread_0.idleFraction     0.001439                       # Percentage of idle cycles (Ratio)
system.cpu0.executeStats0.numInsts                  0                       # Number of executed instructions (Count)
system.cpu0.executeStats0.numNop                    0                       # Number of nop insts executed (Count)
system.cpu0.executeStats0.numBranches               0                       # Number of branches executed (Count)
system.cpu0.executeStats0.numLoadInsts              0                       # Number of load instructions executed (Count)
system.cpu0.executeStats0.numStoreInsts     623230033                       # Number of stores executed (Count)
system.cpu0.executeStats0.instRate                  0                       # Inst execution rate ((Count/Cycle))
system.cpu0.executeStats0.numFpAluAccesses     46781390                       # Number of float alu accesses (Count)
system.cpu0.executeStats0.numFpRegReads      64732989                       # Number of times the floating registers were read (Count)
system.cpu0.executeStats0.numFpRegWrites     33183622                       # Number of times the floating registers were written (Count)
system.cpu0.executeStats0.numIntAluAccesses   3246648208                       # Number of integer alu accesses (Count)
system.cpu0.executeStats0.numIntRegReads   4283672527                       # Number of times the integer registers were read (Count)
system.cpu0.executeStats0.numIntRegWrites   2277932795                       # Number of times the integer registers were written (Count)
system.cpu0.executeStats0.numMemRefs        623230033                       # Number of memory refs (Count)
system.cpu0.executeStats0.numMiscRegReads   1387035918                       # Number of times the Misc registers were read (Count)
system.cpu0.executeStats0.numMiscRegWrites         4836                       # Number of times the Misc registers were written (Count)
system.cpu0.executeStats0.numVecAluAccesses            0                       # Number of vector alu accesses (Count)
system.cpu0.executeStats0.numDiscardedOps            0                       # Number of ops (including micro ops) which were discarded before commit (Count)
system.cpu0.fetchStats0.numInsts           1553648654                       # Number of instructions fetched (thread level) (Count)
system.cpu0.fetchStats0.numOps             3487876671                       # Number of ops (including micro ops) fetched (thread level) (Count)
system.cpu0.fetchStats0.fetchRate            0.266953                       # Number of inst fetches per cycle ((Count/Cycle))
system.cpu0.fetchStats0.numBranches         519251228                       # Number of branches fetched (Count)
system.cpu0.fetchStats0.branchRate           0.089219                       # Number of branch fetches per cycle (Ratio)
system.cpu0.fetchStats0.numFetchSuspends            0                       # Number of times Execute suspended instruction fetching (Count)
system.cpu0.interrupts.clk_domain.clock          8000                       # Clock period in ticks (Tick)
system.cpu0.mmu.dtb.rdAccesses              316077268                       # TLB accesses on read requests (Count)
system.cpu0.mmu.dtb.wrAccesses              307752383                       # TLB accesses on write requests (Count)
system.cpu0.mmu.dtb.rdMisses                    29646                       # TLB misses on read requests (Count)
system.cpu0.mmu.dtb.wrMisses                    23514                       # TLB misses on write requests (Count)
system.cpu0.mmu.dtb.walker.power_state.pwrStateResidencyTicks::UNDEFINED 2909966895500                       # Cumulative time (in ticks) in various power states (Tick)
system.cpu0.mmu.itb.rdAccesses                      0                       # TLB accesses on read requests (Count)
system.cpu0.mmu.itb.wrAccesses             2050486051                       # TLB accesses on write requests (Count)
system.cpu0.mmu.itb.rdMisses                        0                       # TLB misses on read requests (Count)
system.cpu0.mmu.itb.wrMisses                     4697                       # TLB misses on write requests (Count)
system.cpu0.mmu.itb.walker.power_state.pwrStateResidencyTicks::UNDEFINED 2909966895500                       # Cumulative time (in ticks) in various power states (Tick)
system.cpu0.power_state.numTransitions              6                       # Number of power state transitions (Count)
system.cpu0.power_state.ticksClkGated::samples            3                       # Distribution of time spent in the clock gated state (Tick)
system.cpu0.power_state.ticksClkGated::mean   1395688000                       # Distribution of time spent in the clock gated state (Tick)
system.cpu0.power_state.ticksClkGated::stdev 2320413468.378211                       # Distribution of time spent in the clock gated state (Tick)
system.cpu0.power_state.ticksClkGated::1000-5e+10            3    100.00%    100.00% # Distribution of time spent in the clock gated state (Tick)
system.cpu0.power_state.ticksClkGated::min_value     36847000                       # Distribution of time spent in the clock gated state (Tick)
system.cpu0.power_state.ticksClkGated::max_value   4074979000                       # Distribution of time spent in the clock gated state (Tick)
system.cpu0.power_state.ticksClkGated::total            3                       # Distribution of time spent in the clock gated state (Tick)
system.cpu0.power_state.pwrStateResidencyTicks::ON 2905779831500                       # Cumulative time (in ticks) in various power states (Tick)
system.cpu0.power_state.pwrStateResidencyTicks::CLK_GATED   4187064000                       # Cumulative time (in ticks) in various power states (Tick)
system.cpu0.thread_0.numInsts                       0                       # Number of Instructions committed (Count)
system.cpu0.thread_0.numOps                         0                       # Number of Ops committed (Count)
system.cpu0.thread_0.numMemRefs                     0                       # Number of Memory References (Count)
system.cpu0.workload.numSyscalls             11461216                       # Number of system calls (Count)
system.cpu0.workload.drivers0.device.dispatcher.numKernelLaunched           18                       # number of kernel launched (Unspecified)
system.cpu0.workload.drivers0.device.dispatcher.cyclesWaitingForDispatch        81260                       # number of cycles with outstanding wavefronts that are waiting to be dispatched (Unspecified)
system.cpu0.workload.drivers0.device.hsapp.power_state.pwrStateResidencyTicks::UNDEFINED 2909966895500                       # Cumulative time (in ticks) in various power states (Tick)
system.cpu0.workload.drivers0.device.hsapp.walker.power_state.pwrStateResidencyTicks::UNDEFINED 2909966895500                       # Cumulative time (in ticks) in various power states (Tick)
system.cpu0.workload.drivers0.device.power_state.pwrStateResidencyTicks::UNDEFINED 2909966895500                       # Cumulative time (in ticks) in various power states (Tick)
system.cpu0.workload.drivers0.device.walker.power_state.pwrStateResidencyTicks::UNDEFINED 2909966895500                       # Cumulative time (in ticks) in various power states (Tick)
system.cpu1.numCycles                      3325662587                       # Number of cpu cycles simulated (Cycle)
system.cpu1.cpi                           9634.854092                       # CPI: cycles per instruction (core level) ((Cycle/Count))
system.cpu1.ipc                              0.000104                       # IPC: instructions per cycle (core level) ((Count/Cycle))
system.cpu1.numWorkItemsStarted                     0                       # Number of work items this cpu started (Count)
system.cpu1.numWorkItemsCompleted                   0                       # Number of work items this cpu completed (Count)
system.cpu1.clk_domain.clock                      500                       # Clock period in ticks (Tick)
system.cpu1.clk_domain.voltage_domain.voltage            1                       # Voltage in Volts (Volt)
system.cpu1.commitStats0.numInsts              345170                       # Number of instructions committed (thread level) (Count)
system.cpu1.commitStats0.numOps                642832                       # Number of ops (including micro ops) committed (thread level) (Count)
system.cpu1.commitStats0.numInstsNotNOP             0                       # Number of instructions committed excluding NOPs or prefetches (Count)
system.cpu1.commitStats0.numOpsNotNOP               0                       # Number of Ops (including micro ops) Simulated (Count)
system.cpu1.commitStats0.cpi              9634.854092                       # CPI: cycles per instruction (thread level) ((Cycle/Count))
system.cpu1.commitStats0.ipc                 0.000104                       # IPC: instructions per cycle (thread level) ((Count/Cycle))
system.cpu1.commitStats0.numMemRefs                 0                       # Number of memory references committed (Count)
system.cpu1.commitStats0.numFpInsts             20232                       # Number of float instructions (Count)
system.cpu1.commitStats0.numIntInsts           619445                       # Number of integer instructions (Count)
system.cpu1.commitStats0.numLoadInsts          143759                       # Number of load instructions (Count)
system.cpu1.commitStats0.numStoreInsts          14726                       # Number of store instructions (Count)
system.cpu1.commitStats0.numVecInsts                0                       # Number of vector instructions (Count)
system.cpu1.commitStats0.committedInstType::No_OpClass        10519      1.64%      1.64% # Class of committed instruction. (Count)
system.cpu1.commitStats0.committedInstType::IntAlu       459716     71.51%     73.15% # Class of committed instruction. (Count)
system.cpu1.commitStats0.committedInstType::IntMult            3      0.00%     73.15% # Class of committed instruction. (Count)
system.cpu1.commitStats0.committedInstType::IntDiv           75      0.01%     73.16% # Class of committed instruction. (Count)
system.cpu1.commitStats0.committedInstType::FloatAdd         2862      0.45%     73.61% # Class of committed instruction. (Count)
system.cpu1.commitStats0.committedInstType::FloatCmp            0      0.00%     73.61% # Class of committed instruction. (Count)
system.cpu1.commitStats0.committedInstType::FloatCvt           48      0.01%     73.62% # Class of committed instruction. (Count)
system.cpu1.commitStats0.committedInstType::FloatMult            0      0.00%     73.62% # Class of committed instruction. (Count)
system.cpu1.commitStats0.committedInstType::FloatMultAcc            0      0.00%     73.62% # Class of committed instruction. (Count)
system.cpu1.commitStats0.committedInstType::FloatDiv            0      0.00%     73.62% # Class of committed instruction. (Count)
system.cpu1.commitStats0.committedInstType::FloatMisc            0      0.00%     73.62% # Class of committed instruction. (Count)
system.cpu1.commitStats0.committedInstType::FloatSqrt            0      0.00%     73.62% # Class of committed instruction. (Count)
system.cpu1.commitStats0.committedInstType::SimdAdd           20      0.00%     73.62% # Class of committed instruction. (Count)
system.cpu1.commitStats0.committedInstType::SimdAddAcc            0      0.00%     73.62% # Class of committed instruction. (Count)
system.cpu1.commitStats0.committedInstType::SimdAlu         2754      0.43%     74.05% # Class of committed instruction. (Count)
system.cpu1.commitStats0.committedInstType::SimdCmp            0      0.00%     74.05% # Class of committed instruction. (Count)
system.cpu1.commitStats0.committedInstType::SimdCvt           40      0.01%     74.05% # Class of committed instruction. (Count)
system.cpu1.commitStats0.committedInstType::SimdMisc         1542      0.24%     74.29% # Class of committed instruction. (Count)
system.cpu1.commitStats0.committedInstType::SimdMult            0      0.00%     74.29% # Class of committed instruction. (Count)
system.cpu1.commitStats0.committedInstType::SimdMultAcc            0      0.00%     74.29% # Class of committed instruction. (Count)
system.cpu1.commitStats0.committedInstType::SimdMatMultAcc            0      0.00%     74.29% # Class of committed instruction. (Count)
system.cpu1.commitStats0.committedInstType::SimdShift           21      0.00%     74.30% # Class of committed instruction. (Count)
system.cpu1.commitStats0.committedInstType::SimdShiftAcc            0      0.00%     74.30% # Class of committed instruction. (Count)
system.cpu1.commitStats0.committedInstType::SimdDiv            0      0.00%     74.30% # Class of committed instruction. (Count)
system.cpu1.commitStats0.committedInstType::SimdSqrt            0      0.00%     74.30% # Class of committed instruction. (Count)
system.cpu1.commitStats0.committedInstType::SimdFloatAdd         1349      0.21%     74.51% # Class of committed instruction. (Count)
system.cpu1.commitStats0.committedInstType::SimdFloatAlu            0      0.00%     74.51% # Class of committed instruction. (Count)
system.cpu1.commitStats0.committedInstType::SimdFloatCmp            0      0.00%     74.51% # Class of committed instruction. (Count)
system.cpu1.commitStats0.committedInstType::SimdFloatCvt         4041      0.63%     75.13% # Class of committed instruction. (Count)
system.cpu1.commitStats0.committedInstType::SimdFloatDiv            7      0.00%     75.14% # Class of committed instruction. (Count)
system.cpu1.commitStats0.committedInstType::SimdFloatMisc            0      0.00%     75.14% # Class of committed instruction. (Count)
system.cpu1.commitStats0.committedInstType::SimdFloatMult         1350      0.21%     75.35% # Class of committed instruction. (Count)
system.cpu1.commitStats0.committedInstType::SimdFloatMultAcc            0      0.00%     75.35% # Class of committed instruction. (Count)
system.cpu1.commitStats0.committedInstType::SimdFloatMatMultAcc            0      0.00%     75.35% # Class of committed instruction. (Count)
system.cpu1.commitStats0.committedInstType::SimdFloatSqrt            0      0.00%     75.35% # Class of committed instruction. (Count)
system.cpu1.commitStats0.committedInstType::SimdReduceAdd            0      0.00%     75.35% # Class of committed instruction. (Count)
system.cpu1.commitStats0.committedInstType::SimdReduceAlu            0      0.00%     75.35% # Class of committed instruction. (Count)
system.cpu1.commitStats0.committedInstType::SimdReduceCmp            0      0.00%     75.35% # Class of committed instruction. (Count)
system.cpu1.commitStats0.committedInstType::SimdFloatReduceAdd            0      0.00%     75.35% # Class of committed instruction. (Count)
system.cpu1.commitStats0.committedInstType::SimdFloatReduceCmp            0      0.00%     75.35% # Class of committed instruction. (Count)
system.cpu1.commitStats0.committedInstType::SimdAes            0      0.00%     75.35% # Class of committed instruction. (Count)
system.cpu1.commitStats0.committedInstType::SimdAesMix            0      0.00%     75.35% # Class of committed instruction. (Count)
system.cpu1.commitStats0.committedInstType::SimdSha1Hash            0      0.00%     75.35% # Class of committed instruction. (Count)
system.cpu1.commitStats0.committedInstType::SimdSha1Hash2            0      0.00%     75.35% # Class of committed instruction. (Count)
system.cpu1.commitStats0.committedInstType::SimdSha256Hash            0      0.00%     75.35% # Class of committed instruction. (Count)
system.cpu1.commitStats0.committedInstType::SimdSha256Hash2            0      0.00%     75.35% # Class of committed instruction. (Count)
system.cpu1.commitStats0.committedInstType::SimdShaSigma2            0      0.00%     75.35% # Class of committed instruction. (Count)
system.cpu1.commitStats0.committedInstType::SimdShaSigma3            0      0.00%     75.35% # Class of committed instruction. (Count)
system.cpu1.commitStats0.committedInstType::SimdPredAlu            0      0.00%     75.35% # Class of committed instruction. (Count)
system.cpu1.commitStats0.committedInstType::Matrix            0      0.00%     75.35% # Class of committed instruction. (Count)
system.cpu1.commitStats0.committedInstType::MatrixMov            0      0.00%     75.35% # Class of committed instruction. (Count)
system.cpu1.commitStats0.committedInstType::MatrixOP            0      0.00%     75.35% # Class of committed instruction. (Count)
system.cpu1.commitStats0.committedInstType::MemRead       138212     21.50%     96.85% # Class of committed instruction. (Count)
system.cpu1.commitStats0.committedInstType::MemWrite        14229      2.21%     99.06% # Class of committed instruction. (Count)
system.cpu1.commitStats0.committedInstType::FloatMemRead         5547      0.86%     99.92% # Class of committed instruction. (Count)
system.cpu1.commitStats0.committedInstType::FloatMemWrite          497      0.08%    100.00% # Class of committed instruction. (Count)
system.cpu1.commitStats0.committedInstType::IprAccess            0      0.00%    100.00% # Class of committed instruction. (Count)
system.cpu1.commitStats0.committedInstType::InstPrefetch            0      0.00%    100.00% # Class of committed instruction. (Count)
system.cpu1.commitStats0.committedInstType::VectorUnitStrideLoad            0      0.00%    100.00% # Class of committed instruction. (Count)
system.cpu1.commitStats0.committedInstType::VectorUnitStrideStore            0      0.00%    100.00% # Class of committed instruction. (Count)
system.cpu1.commitStats0.committedInstType::VectorUnitStrideMaskLoad            0      0.00%    100.00% # Class of committed instruction. (Count)
system.cpu1.commitStats0.committedInstType::VectorUnitStrideMaskStore            0      0.00%    100.00% # Class of committed instruction. (Count)
system.cpu1.commitStats0.committedInstType::VectorStridedLoad            0      0.00%    100.00% # Class of committed instruction. (Count)
system.cpu1.commitStats0.committedInstType::VectorStridedStore            0      0.00%    100.00% # Class of committed instruction. (Count)
system.cpu1.commitStats0.committedInstType::VectorIndexedLoad            0      0.00%    100.00% # Class of committed instruction. (Count)
system.cpu1.commitStats0.committedInstType::VectorIndexedStore            0      0.00%    100.00% # Class of committed instruction. (Count)
system.cpu1.commitStats0.committedInstType::VectorUnitStrideFaultOnlyFirstLoad            0      0.00%    100.00% # Class of committed instruction. (Count)
system.cpu1.commitStats0.committedInstType::VectorWholeRegisterLoad            0      0.00%    100.00% # Class of committed instruction. (Count)
system.cpu1.commitStats0.committedInstType::VectorWholeRegisterStore            0      0.00%    100.00% # Class of committed instruction. (Count)
system.cpu1.commitStats0.committedInstType::VectorIntegerArith            0      0.00%    100.00% # Class of committed instruction. (Count)
system.cpu1.commitStats0.committedInstType::VectorFloatArith            0      0.00%    100.00% # Class of committed instruction. (Count)
system.cpu1.commitStats0.committedInstType::VectorFloatConvert            0      0.00%    100.00% # Class of committed instruction. (Count)
system.cpu1.commitStats0.committedInstType::VectorIntegerReduce            0      0.00%    100.00% # Class of committed instruction. (Count)
system.cpu1.commitStats0.committedInstType::VectorFloatReduce            0      0.00%    100.00% # Class of committed instruction. (Count)
system.cpu1.commitStats0.committedInstType::VectorMisc            0      0.00%    100.00% # Class of committed instruction. (Count)
system.cpu1.commitStats0.committedInstType::VectorIntegerExtension            0      0.00%    100.00% # Class of committed instruction. (Count)
system.cpu1.commitStats0.committedInstType::VectorConfig            0      0.00%    100.00% # Class of committed instruction. (Count)
system.cpu1.commitStats0.committedInstType::total       642832                       # Class of committed instruction. (Count)
system.cpu1.commitStats0.committedControl::IsControl       110041                       # Class of control type instructions committed (Count)
system.cpu1.commitStats0.committedControl::IsDirectControl        92001                       # Class of control type instructions committed (Count)
system.cpu1.commitStats0.committedControl::IsIndirectControl        18037                       # Class of control type instructions committed (Count)
system.cpu1.commitStats0.committedControl::IsCondControl        89267                       # Class of control type instructions committed (Count)
system.cpu1.commitStats0.committedControl::IsUncondControl        20771                       # Class of control type instructions committed (Count)
system.cpu1.commitStats0.committedControl::IsCall         9051                       # Class of control type instructions committed (Count)
system.cpu1.commitStats0.committedControl::IsReturn         9043                       # Class of control type instructions committed (Count)
system.cpu1.exec_context.thread_0.numMatAluAccesses            0                       # Number of matrix alu accesses (Count)
system.cpu1.exec_context.thread_0.numCallsReturns        18094                       # Number of times a function call or return occured (Count)
system.cpu1.exec_context.thread_0.numMatInsts            0                       # Number of matrix instructions (Count)
system.cpu1.exec_context.thread_0.numIdleCycles 3324897935.902188                       # Number of idle cycles (Cycle)
system.cpu1.exec_context.thread_0.numBusyCycles 764651.097812                       # Number of busy cycles (Cycle)
system.cpu1.exec_context.thread_0.notIdleFraction     0.000230                       # Percentage of non-idle cycles (Ratio)
system.cpu1.exec_context.thread_0.idleFraction     0.999770                       # Percentage of idle cycles (Ratio)
system.cpu1.executeStats0.numInsts                  0                       # Number of executed instructions (Count)
system.cpu1.executeStats0.numNop                    0                       # Number of nop insts executed (Count)
system.cpu1.executeStats0.numBranches               0                       # Number of branches executed (Count)
system.cpu1.executeStats0.numLoadInsts              0                       # Number of load instructions executed (Count)
system.cpu1.executeStats0.numStoreInsts        158485                       # Number of stores executed (Count)
system.cpu1.executeStats0.instRate                  0                       # Inst execution rate ((Count/Cycle))
system.cpu1.executeStats0.numFpAluAccesses        20232                       # Number of float alu accesses (Count)
system.cpu1.executeStats0.numFpRegReads         24349                       # Number of times the floating registers were read (Count)
system.cpu1.executeStats0.numFpRegWrites        16980                       # Number of times the floating registers were written (Count)
system.cpu1.executeStats0.numIntAluAccesses       619445                       # Number of integer alu accesses (Count)
system.cpu1.executeStats0.numIntRegReads       674855                       # Number of times the integer registers were read (Count)
system.cpu1.executeStats0.numIntRegWrites       402727                       # Number of times the integer registers were written (Count)
system.cpu1.executeStats0.numMemRefs           158485                       # Number of memory refs (Count)
system.cpu1.executeStats0.numMiscRegReads       373624                       # Number of times the Misc registers were read (Count)
system.cpu1.executeStats0.numMiscRegWrites           27                       # Number of times the Misc registers were written (Count)
system.cpu1.executeStats0.numVecAluAccesses            0                       # Number of vector alu accesses (Count)
system.cpu1.executeStats0.numDiscardedOps            0                       # Number of ops (including micro ops) which were discarded before commit (Count)
system.cpu1.fetchStats0.numInsts               345170                       # Number of instructions fetched (thread level) (Count)
system.cpu1.fetchStats0.numOps                 642832                       # Number of ops (including micro ops) fetched (thread level) (Count)
system.cpu1.fetchStats0.fetchRate            0.000104                       # Number of inst fetches per cycle ((Count/Cycle))
system.cpu1.fetchStats0.numBranches            110041                       # Number of branches fetched (Count)
system.cpu1.fetchStats0.branchRate           0.000033                       # Number of branch fetches per cycle (Ratio)
system.cpu1.fetchStats0.numFetchSuspends            0                       # Number of times Execute suspended instruction fetching (Count)
system.cpu1.interrupts.clk_domain.clock          8000                       # Clock period in ticks (Tick)
system.cpu1.mmu.dtb.rdAccesses                 143759                       # TLB accesses on read requests (Count)
system.cpu1.mmu.dtb.wrAccesses                  14726                       # TLB accesses on write requests (Count)
system.cpu1.mmu.dtb.rdMisses                      156                       # TLB misses on read requests (Count)
system.cpu1.mmu.dtb.wrMisses                        2                       # TLB misses on write requests (Count)
system.cpu1.mmu.dtb.walker.power_state.pwrStateResidencyTicks::UNDEFINED 2909966895500                       # Cumulative time (in ticks) in various power states (Tick)
system.cpu1.mmu.itb.rdAccesses                      0                       # TLB accesses on read requests (Count)
system.cpu1.mmu.itb.wrAccesses                 455947                       # TLB accesses on write requests (Count)
system.cpu1.mmu.itb.rdMisses                        0                       # TLB misses on read requests (Count)
system.cpu1.mmu.itb.wrMisses                      131                       # TLB misses on write requests (Count)
system.cpu1.mmu.itb.walker.power_state.pwrStateResidencyTicks::UNDEFINED 2909966895500                       # Cumulative time (in ticks) in various power states (Tick)
system.cpu1.power_state.numTransitions              3                       # Number of power state transitions (Count)
system.cpu1.power_state.ticksClkGated::samples            2                       # Distribution of time spent in the clock gated state (Tick)
system.cpu1.power_state.ticksClkGated::mean 624984041000                       # Distribution of time spent in the clock gated state (Tick)
system.cpu1.power_state.ticksClkGated::stdev 879855175417.791992                       # Distribution of time spent in the clock gated state (Tick)
system.cpu1.power_state.ticksClkGated::1000-5e+10            1     50.00%     50.00% # Distribution of time spent in the clock gated state (Tick)
system.cpu1.power_state.ticksClkGated::overflows            1     50.00%    100.00% # Distribution of time spent in the clock gated state (Tick)
system.cpu1.power_state.ticksClkGated::min_value   2832480000                       # Distribution of time spent in the clock gated state (Tick)
system.cpu1.power_state.ticksClkGated::max_value 1247135602000                       # Distribution of time spent in the clock gated state (Tick)
system.cpu1.power_state.ticksClkGated::total            2                       # Distribution of time spent in the clock gated state (Tick)
system.cpu1.power_state.pwrStateResidencyTicks::ON 1659998813500                       # Cumulative time (in ticks) in various power states (Tick)
system.cpu1.power_state.pwrStateResidencyTicks::CLK_GATED 1249968082000                       # Cumulative time (in ticks) in various power states (Tick)
system.cpu1.thread_0.numInsts                       0                       # Number of Instructions committed (Count)
system.cpu1.thread_0.numOps                         0                       # Number of Ops committed (Count)
system.cpu1.thread_0.numMemRefs                     0                       # Number of Memory References (Count)
system.cpu2.numCycles                      3805703544                       # Number of cpu cycles simulated (Cycle)
system.cpu2.cpi                            888.176402                       # CPI: cycles per instruction (core level) ((Cycle/Count))
system.cpu2.ipc                              0.001126                       # IPC: instructions per cycle (core level) ((Count/Cycle))
system.cpu2.numWorkItemsStarted                     0                       # Number of work items this cpu started (Count)
system.cpu2.numWorkItemsCompleted                   0                       # Number of work items this cpu completed (Count)
system.cpu2.clk_domain.clock                      500                       # Clock period in ticks (Tick)
system.cpu2.clk_domain.voltage_domain.voltage            1                       # Voltage in Volts (Volt)
system.cpu2.commitStats0.numInsts             4284851                       # Number of instructions committed (thread level) (Count)
system.cpu2.commitStats0.numOps               9636883                       # Number of ops (including micro ops) committed (thread level) (Count)
system.cpu2.commitStats0.numInstsNotNOP             0                       # Number of instructions committed excluding NOPs or prefetches (Count)
system.cpu2.commitStats0.numOpsNotNOP               0                       # Number of Ops (including micro ops) Simulated (Count)
system.cpu2.commitStats0.cpi               888.176402                       # CPI: cycles per instruction (thread level) ((Cycle/Count))
system.cpu2.commitStats0.ipc                 0.001126                       # IPC: instructions per cycle (thread level) ((Count/Cycle))
system.cpu2.commitStats0.numMemRefs                 0                       # Number of memory references committed (Count)
system.cpu2.commitStats0.numFpInsts           3023658                       # Number of float instructions (Count)
system.cpu2.commitStats0.numIntInsts          8752101                       # Number of integer instructions (Count)
system.cpu2.commitStats0.numLoadInsts         2185480                       # Number of load instructions (Count)
system.cpu2.commitStats0.numStoreInsts        2398502                       # Number of store instructions (Count)
system.cpu2.commitStats0.numVecInsts                0                       # Number of vector instructions (Count)
system.cpu2.commitStats0.committedInstType::No_OpClass       754279      7.83%      7.83% # Class of committed instruction. (Count)
system.cpu2.commitStats0.committedInstType::IntAlu      4193133     43.51%     51.34% # Class of committed instruction. (Count)
system.cpu2.commitStats0.committedInstType::IntMult         1410      0.01%     51.35% # Class of committed instruction. (Count)
system.cpu2.commitStats0.committedInstType::IntDiv         1871      0.02%     51.37% # Class of committed instruction. (Count)
system.cpu2.commitStats0.committedInstType::FloatAdd        16873      0.18%     51.55% # Class of committed instruction. (Count)
system.cpu2.commitStats0.committedInstType::FloatCmp            3      0.00%     51.55% # Class of committed instruction. (Count)
system.cpu2.commitStats0.committedInstType::FloatCvt          530      0.01%     51.55% # Class of committed instruction. (Count)
system.cpu2.commitStats0.committedInstType::FloatMult            1      0.00%     51.55% # Class of committed instruction. (Count)
system.cpu2.commitStats0.committedInstType::FloatMultAcc            0      0.00%     51.55% # Class of committed instruction. (Count)
system.cpu2.commitStats0.committedInstType::FloatDiv            1      0.00%     51.55% # Class of committed instruction. (Count)
system.cpu2.commitStats0.committedInstType::FloatMisc            0      0.00%     51.55% # Class of committed instruction. (Count)
system.cpu2.commitStats0.committedInstType::FloatSqrt            0      0.00%     51.55% # Class of committed instruction. (Count)
system.cpu2.commitStats0.committedInstType::SimdAdd          412      0.00%     51.56% # Class of committed instruction. (Count)
system.cpu2.commitStats0.committedInstType::SimdAddAcc            0      0.00%     51.56% # Class of committed instruction. (Count)
system.cpu2.commitStats0.committedInstType::SimdAlu        26398      0.27%     51.83% # Class of committed instruction. (Count)
system.cpu2.commitStats0.committedInstType::SimdCmp           12      0.00%     51.83% # Class of committed instruction. (Count)
system.cpu2.commitStats0.committedInstType::SimdCvt          558      0.01%     51.84% # Class of committed instruction. (Count)
system.cpu2.commitStats0.committedInstType::SimdMisc        10680      0.11%     51.95% # Class of committed instruction. (Count)
system.cpu2.commitStats0.committedInstType::SimdMult            0      0.00%     51.95% # Class of committed instruction. (Count)
system.cpu2.commitStats0.committedInstType::SimdMultAcc            0      0.00%     51.95% # Class of committed instruction. (Count)
system.cpu2.commitStats0.committedInstType::SimdMatMultAcc            0      0.00%     51.95% # Class of committed instruction. (Count)
system.cpu2.commitStats0.committedInstType::SimdShift          283      0.00%     51.95% # Class of committed instruction. (Count)
system.cpu2.commitStats0.committedInstType::SimdShiftAcc            0      0.00%     51.95% # Class of committed instruction. (Count)
system.cpu2.commitStats0.committedInstType::SimdDiv            0      0.00%     51.95% # Class of committed instruction. (Count)
system.cpu2.commitStats0.committedInstType::SimdSqrt            0      0.00%     51.95% # Class of committed instruction. (Count)
system.cpu2.commitStats0.committedInstType::SimdFloatAdd         9619      0.10%     52.05% # Class of committed instruction. (Count)
system.cpu2.commitStats0.committedInstType::SimdFloatAlu            0      0.00%     52.05% # Class of committed instruction. (Count)
system.cpu2.commitStats0.committedInstType::SimdFloatCmp            0      0.00%     52.05% # Class of committed instruction. (Count)
system.cpu2.commitStats0.committedInstType::SimdFloatCvt        27205      0.28%     52.33% # Class of committed instruction. (Count)
system.cpu2.commitStats0.committedInstType::SimdFloatDiv            9      0.00%     52.33% # Class of committed instruction. (Count)
system.cpu2.commitStats0.committedInstType::SimdFloatMisc            0      0.00%     52.33% # Class of committed instruction. (Count)
system.cpu2.commitStats0.committedInstType::SimdFloatMult         9624      0.10%     52.43% # Class of committed instruction. (Count)
system.cpu2.commitStats0.committedInstType::SimdFloatMultAcc            0      0.00%     52.43% # Class of committed instruction. (Count)
system.cpu2.commitStats0.committedInstType::SimdFloatMatMultAcc            0      0.00%     52.43% # Class of committed instruction. (Count)
system.cpu2.commitStats0.committedInstType::SimdFloatSqrt            0      0.00%     52.43% # Class of committed instruction. (Count)
system.cpu2.commitStats0.committedInstType::SimdReduceAdd            0      0.00%     52.43% # Class of committed instruction. (Count)
system.cpu2.commitStats0.committedInstType::SimdReduceAlu            0      0.00%     52.43% # Class of committed instruction. (Count)
system.cpu2.commitStats0.committedInstType::SimdReduceCmp            0      0.00%     52.43% # Class of committed instruction. (Count)
system.cpu2.commitStats0.committedInstType::SimdFloatReduceAdd            0      0.00%     52.43% # Class of committed instruction. (Count)
system.cpu2.commitStats0.committedInstType::SimdFloatReduceCmp            0      0.00%     52.43% # Class of committed instruction. (Count)
system.cpu2.commitStats0.committedInstType::SimdAes            0      0.00%     52.43% # Class of committed instruction. (Count)
system.cpu2.commitStats0.committedInstType::SimdAesMix            0      0.00%     52.43% # Class of committed instruction. (Count)
system.cpu2.commitStats0.committedInstType::SimdSha1Hash            0      0.00%     52.43% # Class of committed instruction. (Count)
system.cpu2.commitStats0.committedInstType::SimdSha1Hash2            0      0.00%     52.43% # Class of committed instruction. (Count)
system.cpu2.commitStats0.committedInstType::SimdSha256Hash            0      0.00%     52.43% # Class of committed instruction. (Count)
system.cpu2.commitStats0.committedInstType::SimdSha256Hash2            0      0.00%     52.43% # Class of committed instruction. (Count)
system.cpu2.commitStats0.committedInstType::SimdShaSigma2            0      0.00%     52.43% # Class of committed instruction. (Count)
system.cpu2.commitStats0.committedInstType::SimdShaSigma3            0      0.00%     52.43% # Class of committed instruction. (Count)
system.cpu2.commitStats0.committedInstType::SimdPredAlu            0      0.00%     52.43% # Class of committed instruction. (Count)
system.cpu2.commitStats0.committedInstType::Matrix            0      0.00%     52.43% # Class of committed instruction. (Count)
system.cpu2.commitStats0.committedInstType::MatrixMov            0      0.00%     52.43% # Class of committed instruction. (Count)
system.cpu2.commitStats0.committedInstType::MatrixOP            0      0.00%     52.43% # Class of committed instruction. (Count)
system.cpu2.commitStats0.committedInstType::MemRead       715508      7.42%     59.86% # Class of committed instruction. (Count)
system.cpu2.commitStats0.committedInstType::MemWrite       947678      9.83%     69.69% # Class of committed instruction. (Count)
system.cpu2.commitStats0.committedInstType::FloatMemRead      1469972     15.25%     84.95% # Class of committed instruction. (Count)
system.cpu2.commitStats0.committedInstType::FloatMemWrite      1450824     15.05%    100.00% # Class of committed instruction. (Count)
system.cpu2.commitStats0.committedInstType::IprAccess            0      0.00%    100.00% # Class of committed instruction. (Count)
system.cpu2.commitStats0.committedInstType::InstPrefetch            0      0.00%    100.00% # Class of committed instruction. (Count)
system.cpu2.commitStats0.committedInstType::VectorUnitStrideLoad            0      0.00%    100.00% # Class of committed instruction. (Count)
system.cpu2.commitStats0.committedInstType::VectorUnitStrideStore            0      0.00%    100.00% # Class of committed instruction. (Count)
system.cpu2.commitStats0.committedInstType::VectorUnitStrideMaskLoad            0      0.00%    100.00% # Class of committed instruction. (Count)
system.cpu2.commitStats0.committedInstType::VectorUnitStrideMaskStore            0      0.00%    100.00% # Class of committed instruction. (Count)
system.cpu2.commitStats0.committedInstType::VectorStridedLoad            0      0.00%    100.00% # Class of committed instruction. (Count)
system.cpu2.commitStats0.committedInstType::VectorStridedStore            0      0.00%    100.00% # Class of committed instruction. (Count)
system.cpu2.commitStats0.committedInstType::VectorIndexedLoad            0      0.00%    100.00% # Class of committed instruction. (Count)
system.cpu2.commitStats0.committedInstType::VectorIndexedStore            0      0.00%    100.00% # Class of committed instruction. (Count)
system.cpu2.commitStats0.committedInstType::VectorUnitStrideFaultOnlyFirstLoad            0      0.00%    100.00% # Class of committed instruction. (Count)
system.cpu2.commitStats0.committedInstType::VectorWholeRegisterLoad            0      0.00%    100.00% # Class of committed instruction. (Count)
system.cpu2.commitStats0.committedInstType::VectorWholeRegisterStore            0      0.00%    100.00% # Class of committed instruction. (Count)
system.cpu2.commitStats0.committedInstType::VectorIntegerArith            0      0.00%    100.00% # Class of committed instruction. (Count)
system.cpu2.commitStats0.committedInstType::VectorFloatArith            0      0.00%    100.00% # Class of committed instruction. (Count)
system.cpu2.commitStats0.committedInstType::VectorFloatConvert            0      0.00%    100.00% # Class of committed instruction. (Count)
system.cpu2.commitStats0.committedInstType::VectorIntegerReduce            0      0.00%    100.00% # Class of committed instruction. (Count)
system.cpu2.commitStats0.committedInstType::VectorFloatReduce            0      0.00%    100.00% # Class of committed instruction. (Count)
system.cpu2.commitStats0.committedInstType::VectorMisc            0      0.00%    100.00% # Class of committed instruction. (Count)
system.cpu2.commitStats0.committedInstType::VectorIntegerExtension            0      0.00%    100.00% # Class of committed instruction. (Count)
system.cpu2.commitStats0.committedInstType::VectorConfig            0      0.00%    100.00% # Class of committed instruction. (Count)
system.cpu2.commitStats0.committedInstType::total      9636883                       # Class of committed instruction. (Count)
system.cpu2.commitStats0.committedControl::IsControl       516166                       # Class of control type instructions committed (Count)
system.cpu2.commitStats0.committedControl::IsDirectControl       472745                       # Class of control type instructions committed (Count)
system.cpu2.commitStats0.committedControl::IsIndirectControl        43378                       # Class of control type instructions committed (Count)
system.cpu2.commitStats0.committedControl::IsCondControl       421014                       # Class of control type instructions committed (Count)
system.cpu2.commitStats0.committedControl::IsUncondControl        95109                       # Class of control type instructions committed (Count)
system.cpu2.commitStats0.committedControl::IsCall        27887                       # Class of control type instructions committed (Count)
system.cpu2.commitStats0.committedControl::IsReturn        27877                       # Class of control type instructions committed (Count)
system.cpu2.exec_context.thread_0.numMatAluAccesses            0                       # Number of matrix alu accesses (Count)
system.cpu2.exec_context.thread_0.numCallsReturns        55764                       # Number of times a function call or return occured (Count)
system.cpu2.exec_context.thread_0.numMatInsts            0                       # Number of matrix instructions (Count)
system.cpu2.exec_context.thread_0.numIdleCycles 3697004631.951194                       # Number of idle cycles (Cycle)
system.cpu2.exec_context.thread_0.numBusyCycles 108698912.048806                       # Number of busy cycles (Cycle)
system.cpu2.exec_context.thread_0.notIdleFraction     0.028562                       # Percentage of non-idle cycles (Ratio)
system.cpu2.exec_context.thread_0.idleFraction     0.971438                       # Percentage of idle cycles (Ratio)
system.cpu2.executeStats0.numInsts                  0                       # Number of executed instructions (Count)
system.cpu2.executeStats0.numNop                    0                       # Number of nop insts executed (Count)
system.cpu2.executeStats0.numBranches               0                       # Number of branches executed (Count)
system.cpu2.executeStats0.numLoadInsts              0                       # Number of load instructions executed (Count)
system.cpu2.executeStats0.numStoreInsts       4583982                       # Number of stores executed (Count)
system.cpu2.executeStats0.instRate                  0                       # Inst execution rate ((Count/Cycle))
system.cpu2.executeStats0.numFpAluAccesses      3023658                       # Number of float alu accesses (Count)
system.cpu2.executeStats0.numFpRegReads       1631956                       # Number of times the floating registers were read (Count)
system.cpu2.executeStats0.numFpRegWrites      1554420                       # Number of times the floating registers were written (Count)
system.cpu2.executeStats0.numIntAluAccesses      8752101                       # Number of integer alu accesses (Count)
system.cpu2.executeStats0.numIntRegReads      9239751                       # Number of times the integer registers were read (Count)
system.cpu2.executeStats0.numIntRegWrites      3608948                       # Number of times the integer registers were written (Count)
system.cpu2.executeStats0.numMemRefs          4583982                       # Number of memory refs (Count)
system.cpu2.executeStats0.numMiscRegReads      5655768                       # Number of times the Misc registers were read (Count)
system.cpu2.executeStats0.numMiscRegWrites          329                       # Number of times the Misc registers were written (Count)
system.cpu2.executeStats0.numVecAluAccesses            0                       # Number of vector alu accesses (Count)
system.cpu2.executeStats0.numDiscardedOps            0                       # Number of ops (including micro ops) which were discarded before commit (Count)
system.cpu2.fetchStats0.numInsts              4284851                       # Number of instructions fetched (thread level) (Count)
system.cpu2.fetchStats0.numOps                9636883                       # Number of ops (including micro ops) fetched (thread level) (Count)
system.cpu2.fetchStats0.fetchRate            0.001126                       # Number of inst fetches per cycle ((Count/Cycle))
system.cpu2.fetchStats0.numBranches            516166                       # Number of branches fetched (Count)
system.cpu2.fetchStats0.branchRate           0.000136                       # Number of branch fetches per cycle (Ratio)
system.cpu2.fetchStats0.numFetchSuspends            0                       # Number of times Execute suspended instruction fetching (Count)
system.cpu2.interrupts.clk_domain.clock          8000                       # Clock period in ticks (Tick)
system.cpu2.mmu.dtb.rdAccesses                2185508                       # TLB accesses on read requests (Count)
system.cpu2.mmu.dtb.wrAccesses                2398767                       # TLB accesses on write requests (Count)
system.cpu2.mmu.dtb.rdMisses                     3969                       # TLB misses on read requests (Count)
system.cpu2.mmu.dtb.wrMisses                     3377                       # TLB misses on write requests (Count)
system.cpu2.mmu.dtb.walker.power_state.pwrStateResidencyTicks::UNDEFINED 2909966895500                       # Cumulative time (in ticks) in various power states (Tick)
system.cpu2.mmu.itb.rdAccesses                      0                       # TLB accesses on read requests (Count)
system.cpu2.mmu.itb.wrAccesses                7183786                       # TLB accesses on write requests (Count)
system.cpu2.mmu.itb.rdMisses                        0                       # TLB misses on read requests (Count)
system.cpu2.mmu.itb.wrMisses                      444                       # TLB misses on write requests (Count)
system.cpu2.mmu.itb.walker.power_state.pwrStateResidencyTicks::UNDEFINED 2909966895500                       # Cumulative time (in ticks) in various power states (Tick)
system.cpu2.power_state.numTransitions             17                       # Number of power state transitions (Count)
system.cpu2.power_state.ticksClkGated::samples            9                       # Distribution of time spent in the clock gated state (Tick)
system.cpu2.power_state.ticksClkGated::mean 129499104000                       # Distribution of time spent in the clock gated state (Tick)
system.cpu2.power_state.ticksClkGated::stdev 332055499444.894897                       # Distribution of time spent in the clock gated state (Tick)
system.cpu2.power_state.ticksClkGated::1000-5e+10            7     77.78%     77.78% # Distribution of time spent in the clock gated state (Tick)
system.cpu2.power_state.ticksClkGated::1e+11-1.5e+11            1     11.11%     88.89% # Distribution of time spent in the clock gated state (Tick)
system.cpu2.power_state.ticksClkGated::overflows            1     11.11%    100.00% # Distribution of time spent in the clock gated state (Tick)
system.cpu2.power_state.ticksClkGated::min_value      1977500                       # Distribution of time spent in the clock gated state (Tick)
system.cpu2.power_state.ticksClkGated::max_value 1007115123500                       # Distribution of time spent in the clock gated state (Tick)
system.cpu2.power_state.ticksClkGated::total            9                       # Distribution of time spent in the clock gated state (Tick)
system.cpu2.power_state.pwrStateResidencyTicks::ON 1744474959500                       # Cumulative time (in ticks) in various power states (Tick)
system.cpu2.power_state.pwrStateResidencyTicks::CLK_GATED 1165491936000                       # Cumulative time (in ticks) in various power states (Tick)
system.cpu2.thread_0.numInsts                       0                       # Number of Instructions committed (Count)
system.cpu2.thread_0.numOps                         0                       # Number of Ops committed (Count)
system.cpu2.thread_0.numMemRefs                     0                       # Number of Memory References (Count)
system.cpu3.allLatencyDist::bucket_size         10000                       # delay distribution for all (Unspecified)
system.cpu3.allLatencyDist::min_bucket              0                       # delay distribution for all (Unspecified)
system.cpu3.allLatencyDist::max_bucket        1600000                       # delay distribution for all (Unspecified)
system.cpu3.allLatencyDist::samples           4268906                       # delay distribution for all (Unspecified)
system.cpu3.allLatencyDist::mean         9339646.715575                       # delay distribution for all (Unspecified)
system.cpu3.allLatencyDist::stdev        9674843.401037                       # delay distribution for all (Unspecified)
system.cpu3.allLatencyDist::underflows              0      0.00%      0.00% # delay distribution for all (Unspecified)
system.cpu3.allLatencyDist               |           0      0.00%      0.00% |           0      0.00%      0.00% |           0      0.00%      0.00% |           0      0.00%      0.00% |           0      0.00%      0.00% |           0      0.00%      0.00% |           0      0.00%      0.00% |           0      0.00%      0.00% |           0      0.00%      0.00% |           0      0.00%      0.00% |          43      0.00%      0.00% |           2      0.00%      0.00% |         131      0.00%      0.00% |          72      0.00%      0.01% |          56      0.00%      0.01% |          32      0.00%      0.01% |          34      0.00%      0.01% |          91      0.00%      0.01% |          38      0.00%      0.01% |        1443      0.03%      0.05% |        1380      0.03%      0.08% |         924      0.02%      0.10% |         694      0.02%      0.12% |         697      0.02%      0.13% |         569      0.01%      0.15% |         471      0.01%      0.16% |         660      0.02%      0.17% |         651      0.02%      0.19% |         480      0.01%      0.20% |         439      0.01%      0.21% |         391      0.01%      0.22% |         421      0.01%      0.23% |         410      0.01%      0.24% |         735      0.02%      0.25% |         761      0.02%      0.27% |         709      0.02%      0.29% |         658      0.02%      0.30% |         677      0.02%      0.32% |         578      0.01%      0.33% |         543      0.01%      0.35% |         534      0.01%      0.36% |         480      0.01%      0.37% |         392      0.01%      0.38% |         384      0.01%      0.39% |         341      0.01%      0.40% |         297      0.01%      0.40% |         277      0.01%      0.41% |         277      0.01%      0.42% |         290      0.01%      0.42% |         256      0.01%      0.43% |         256      0.01%      0.44% |         248      0.01%      0.44% |         212      0.00%      0.45% |         218      0.01%      0.45% |         212      0.00%      0.46% |         174      0.00%      0.46% |         210      0.00%      0.46% |         213      0.00%      0.47% |         221      0.01%      0.48% |         206      0.00%      0.48% |         213      0.00%      0.48% |         198      0.00%      0.49% |         181      0.00%      0.49% |         193      0.00%      0.50% |         156      0.00%      0.50% |         153      0.00%      0.51% |         186      0.00%      0.51% |         157      0.00%      0.51% |         142      0.00%      0.52% |         152      0.00%      0.52% |         181      0.00%      0.52% |         180      0.00%      0.53% |         184      0.00%      0.53% |         198      0.00%      0.54% |         221      0.01%      0.54% |         197      0.00%      0.55% |         204      0.00%      0.55% |         173      0.00%      0.56% |         165      0.00%      0.56% |         156      0.00%      0.56% |         163      0.00%      0.57% |         152      0.00%      0.57% |         146      0.00%      0.57% |         148      0.00%      0.58% |         142      0.00%      0.58% |         137      0.00%      0.58% |         133      0.00%      0.59% |         157      0.00%      0.59% |         151      0.00%      0.60% |         160      0.00%      0.60% |         151      0.00%      0.60% |         142      0.00%      0.61% |         150      0.00%      0.61% |         151      0.00%      0.61% |         145      0.00%      0.62% |         138      0.00%      0.62% |         144      0.00%      0.62% |         139      0.00%      0.63% |         143      0.00%      0.63% |         163      0.00%      0.63% |         123      0.00%      0.64% |         152      0.00%      0.64% |         140      0.00%      0.64% |         132      0.00%      0.65% |         181      0.00%      0.65% |         163      0.00%      0.65% |         154      0.00%      0.66% |         164      0.00%      0.66% |         164      0.00%      0.67% |         156      0.00%      0.67% |         150      0.00%      0.67% |         153      0.00%      0.68% |         168      0.00%      0.68% |         154      0.00%      0.68% |         121      0.00%      0.69% |         139      0.00%      0.69% |         151      0.00%      0.69% |         122      0.00%      0.70% |         165      0.00%      0.70% |         161      0.00%      0.70% |         179      0.00%      0.71% |         175      0.00%      0.71% |         167      0.00%      0.72% |         157      0.00%      0.72% |         135      0.00%      0.72% |         174      0.00%      0.73% |         152      0.00%      0.73% |         142      0.00%      0.73% |         159      0.00%      0.74% |         145      0.00%      0.74% |         156      0.00%      0.74% |         168      0.00%      0.75% |         174      0.00%      0.75% |         192      0.00%      0.76% |         195      0.00%      0.76% |         177      0.00%      0.77% |         178      0.00%      0.77% |         167      0.00%      0.77% |         183      0.00%      0.78% |         180      0.00%      0.78% |         203      0.00%      0.79% |         196      0.00%      0.79% |         201      0.00%      0.80% |         219      0.01%      0.80% |         176      0.00%      0.81% |         199      0.00%      0.81% |         185      0.00%      0.81% |         206      0.00%      0.82% |         178      0.00%      0.82% |         203      0.00%      0.83% |         202      0.00%      0.83% |         253      0.01%      0.84% |         224      0.01%      0.84% |         232      0.01%      0.85% |         238      0.01%      0.86% |         277      0.01%      0.86% |         255      0.01%      0.87% |         266      0.01%      0.87% |         244      0.01%      0.88% |         216      0.01%      0.88% |          32      0.00%      0.89% # delay distribution for all (Unspecified)
system.cpu3.allLatencyDist::overflows         4231100     99.11%    100.00% # delay distribution for all (Unspecified)
system.cpu3.allLatencyDist::min_value          105000                       # delay distribution for all (Unspecified)
system.cpu3.allLatencyDist::max_value       229567000                       # delay distribution for all (Unspecified)
system.cpu3.allLatencyDist::total             4268906                       # delay distribution for all (Unspecified)
system.cpu3.loadLatencyDist::bucket_size        10000                       # delay distribution for loads (Unspecified)
system.cpu3.loadLatencyDist::min_bucket             0                       # delay distribution for loads (Unspecified)
system.cpu3.loadLatencyDist::max_bucket       1600000                       # delay distribution for loads (Unspecified)
system.cpu3.loadLatencyDist::samples          3996182                       # delay distribution for loads (Unspecified)
system.cpu3.loadLatencyDist::mean        9460747.044054                       # delay distribution for loads (Unspecified)
system.cpu3.loadLatencyDist::stdev       9819293.777604                       # delay distribution for loads (Unspecified)
system.cpu3.loadLatencyDist::underflows             0      0.00%      0.00% # delay distribution for loads (Unspecified)
[...]
system.cpu3.cacheBlockRoundTrip7::overflows            0                       # Coalsr-to-coalsr time for the Nth cache block in an inst (Unspecified)
system.cpu3.cacheBlockRoundTrip7::min_value            0                       # Coalsr-to-coalsr time for the Nth cache block in an inst (Unspecified)
system.cpu3.cacheBlockRoundTrip7::max_value            0                       # Coalsr-to-coalsr time for the Nth cache block in an inst (Unspecified)
system.cpu3.cacheBlockRoundTrip7::total             0                       # Coalsr-to-coalsr time for the Nth cache block in an inst (Unspecified)
system.cpu3.cacheBlockRoundTrip8::bucket_size        10000                       # Coalsr-to-coalsr time for the Nth cache block in an inst (Unspecified)
system.cpu3.cacheBlockRoundTrip8::min_bucket            0                       # Coalsr-to-coalsr time for the Nth cache block in an inst (Unspecified)
system.cpu3.cacheBlockRoundTrip8::max_bucket      1600000                       # Coalsr-to-coalsr time for the Nth cache block in an inst (Unspecified)
system.cpu3.cacheBlockRoundTrip8::samples            0                       # Coalsr-to-coalsr time for the Nth cache block in an inst (Unspecified)
system.cpu3.cacheBlockRoundTrip8::mean            nan                       # Coalsr-to-coalsr time for the Nth cache block in an inst (Unspecified)
system.cpu3.cacheBlockRoundTrip8::stdev           nan                       # Coalsr-to-coalsr time for the Nth cache block in an inst (Unspecified)
system.cpu3.cacheBlockRoundTrip8::underflows            0                       # Coalsr-to-coalsr time for the Nth cache block in an inst (Unspecified)
system.cpu3.cacheBlockRoundTrip8         |           0                       |           0                       |           0                       |           0                       |           0                       |           0                       |           0                       |           0                       |           0                       |           0                       |           0                       |           0                       |           0                       |           0                       |           0                       |           0                       |           0                       |           0                       |           0                       |           0                       |           0                       |           0                       |           0                       |           0                       |           0                       |           0                       |           0                       |           0                       |           0                       |           0                       |           0                       |           0                       |           0                       |           0                       |           0                       |           0                       |           0                       |           0                       |           0                       |           0                       |           0                       |           0                       |           0                       |           0                       |           0                       |           0                       |           0                       |           0                       |           0                       |           0                       |           0                       |           0                       |           0                       |           0                       |           0                       |           0                       |           0                       |           0                       |           0                       |           0                       |           0                       |           0                       |           0                       |           0                       |           0                       |           0                       |           0                       |           0                       |           0                       |           0                       |           0                       |           0                       |           0                       |           0                       |           0                       |           0                       |           0                       |           0                       |           0                       |           0                       |           0                       |           0                       |           0                       |           0                       |           0                       |           0                       |           0                       |           0                       |           0                       |           0                       |           0                       |           0                       |           0                       |           0                       |           0                       |           0                       |           0                       |           0                       |           0                       |           0                       |           0                       |           0                       |           0                       |           0                       |           0                       |           0                       |           0                       |           0                       |           0                       |           0                       |           0                       |           0                       |           0                       |           0                       |           0                       |           0                       |           0                       |           0                       |           0                       |           0                       |           0                       |           0                       |           0                       |           0                       |           0                       |           0                       |           0                       |           0                       |           0                       |           0                       |           0                       |           0                       |           0                       |           0                       |           0                       |           0                       |           0                       |           0                       |           0                       |           0                       |           0                       |           0                       |           0                       |           0                       |           0                       |           0                       |           0                       |           0                       |           0                       |           0                       |           0                       |           0                       |           0                       |           0                       |           0                       |           0                       |           0                       |           0                       |           0                       |           0                       |           0                       # Coalsr-to-coalsr time for the Nth cache block in an inst (Unspecified)
system.cpu3.cacheBlockRoundTrip8::overflows            0                       # Coalsr-to-coalsr time for the Nth cache block in an inst (Unspecified)
system.cpu3.cacheBlockRoundTrip8::min_value            0                       # Coalsr-to-coalsr time for the Nth cache block in an inst (Unspecified)
system.cpu3.cacheBlockRoundTrip8::max_value            0                       # Coalsr-to-coalsr time for the Nth cache block in an inst (Unspecified)
system.cpu3.cacheBlockRoundTrip8::total             0                       # Coalsr-to-coalsr time for the Nth cache block in an inst (Unspecified)
system.cpu3.cacheBlockRoundTrip9::bucket_size        10000                       # Coalsr-to-coalsr time for the Nth cache block in an inst (Unspecified)
system.cpu3.cacheBlockRoundTrip9::min_bucket            0                       # Coalsr-to-coalsr time for the Nth cache block in an inst (Unspecified)
system.cpu3.cacheBlockRoundTrip9::max_bucket      1600000                       # Coalsr-to-coalsr time for the Nth cache block in an inst (Unspecified)
system.cpu3.cacheBlockRoundTrip9::samples            0                       # Coalsr-to-coalsr time for the Nth cache block in an inst (Unspecified)
system.cpu3.cacheBlockRoundTrip9::mean            nan                       # Coalsr-to-coalsr time for the Nth cache block in an inst (Unspecified)
system.cpu3.cacheBlockRoundTrip9::stdev           nan                       # Coalsr-to-coalsr time for the Nth cache block in an inst (Unspecified)
system.cpu3.cacheBlockRoundTrip9::underflows            0                       # Coalsr-to-coalsr time for the Nth cache block in an inst (Unspecified)
system.cpu3.cacheBlockRoundTrip9         |           0                       |           0                       |           0                       |           0                       |           0                       |           0                       |           0                       |           0                       |           0                       |           0                       |           0                       |           0                       |           0                       |           0                       |           0                       |           0                       |           0                       |           0                       |           0                       |           0                       |           0                       |           0                       |           0                       |           0                       |           0                       |           0                       |           0                       |           0                       |           0                       |           0                       |           0                       |           0                       |           0                       |           0                       |           0                       |           0                       |           0                       |           0                       |           0                       |           0                       |           0                       |           0                       |           0                       |           0                       |           0                       |           0                       |           0                       |           0                       |           0                       |           0                       |           0                       |           0                       |           0                       |           0                       |           0                       |           0                       |           0                       |           0                       |           0                       |           0                       |           0                       |           0                       |           0                       |           0                       |           0                       |           0                       |           0                       |           0                       |           0                       |           0                       |           0                       |           0                       |           0                       |           0                       |           0                       |           0                       |           0                       |           0                       |           0                       |           0                       |           0                       |           0                       |           0                       |           0                       |           0                       |           0                       |           0                       |           0                       |           0                       |           0                       |           0                       |           0                       |           0                       |           0                       |           0                       |           0                       |           0                       |           0                       |           0                       |           0                       |           0                       |           0                       |           0                       |           0                       |           0                       |           0                       |           0                       |           0                       |           0                       |           0                       |           0                       |           0                       |           0                       |           0                       |           0                       |           0                       |           0                       |           0                       |           0                       |           0                       |           0                       |           0                       |           0                       |           0                       |           0                       |           0                       |           0                       |           0                       |           0                       |           0                       |           0                       |           0                       |           0                       |           0                       |           0                       |           0                       |           0                       |           0                       |           0                       |           0                       |           0                       |           0                       |           0                       |           0                       |           0                       |           0                       |           0                       |           0                       |           0                       |           0                       |           0                       |           0                       |           0                       |           0                       |           0                       |           0                       |           0                       |           0                       |           0                       |           0                       |           0                       # Coalsr-to-coalsr time for the Nth cache block in an inst (Unspecified)
system.cpu3.cacheBlockRoundTrip9::overflows            0                       # Coalsr-to-coalsr time for the Nth cache block in an inst (Unspecified)
system.cpu3.cacheBlockRoundTrip9::min_value            0                       # Coalsr-to-coalsr time for the Nth cache block in an inst (Unspecified)
system.cpu3.cacheBlockRoundTrip9::max_value            0                       # Coalsr-to-coalsr time for the Nth cache block in an inst (Unspecified)
system.cpu3.cacheBlockRoundTrip9::total             0                       # Coalsr-to-coalsr time for the Nth cache block in an inst (Unspecified)

---------- End Simulation Statistics   ----------
